@<TRIPOS>MOLECULE
mol_name
	 10000 	 9999 	 0 	 0 	 0 
SMALL
USER_CHARGES
@<TRIPOS>ATOM
1 	 C 	 32.355000 	 32.355000 	 32.355000 	 C 	 1  ala 	 1.000000 
2 	 C 	 31.710565 	 32.529207 	 31.610449 	 C 	 1  ala 	 1.000000 
3 	 C 	 31.639798 	 32.179817 	 30.676148 	 C 	 1  ala 	 1.000000 
4 	 C 	 32.601826 	 32.371850 	 30.870120 	 C 	 1  ala 	 1.000000 
5 	 C 	 31.728628 	 32.301810 	 30.387813 	 C 	 1  ala 	 1.000000 
6 	 C 	 32.010205 	 32.150157 	 31.335291 	 C 	 1  ala 	 1.000000 
7 	 C 	 31.432730 	 31.335670 	 31.391269 	 C 	 1  ala 	 1.000000 
8 	 C 	 30.986898 	 30.480923 	 31.657051 	 C 	 1  ala 	 1.000000 
9 	 C 	 30.661992 	 31.381298 	 31.367638 	 C 	 1  ala 	 1.000000 
10 	 C 	 30.272025 	 30.622686 	 31.889589 	 C 	 1  ala 	 1.000000 
11 	 C 	 29.881307 	 31.539846 	 31.968056 	 C 	 1  ala 	 1.000000 
12 	 C 	 29.374345 	 31.202054 	 32.761079 	 C 	 1  ala 	 1.000000 
13 	 C 	 29.560518 	 32.091549 	 32.343780 	 C 	 1  ala 	 1.000000 
14 	 C 	 30.255284 	 31.940092 	 31.640672 	 C 	 1  ala 	 1.000000 
15 	 C 	 29.632132 	 32.370461 	 32.293714 	 C 	 1  ala 	 1.000000 
16 	 C 	 29.149217 	 32.414568 	 31.419158 	 C 	 1  ala 	 1.000000 
17 	 C 	 28.633381 	 33.245297 	 31.628451 	 C 	 1  ala 	 1.000000 
18 	 C 	 28.866305 	 33.214111 	 32.600445 	 C 	 1  ala 	 1.000000 
19 	 C 	 28.588307 	 32.268581 	 32.769825 	 C 	 1  ala 	 1.000000 
20 	 C 	 29.520151 	 32.062216 	 32.471360 	 C 	 1  ala 	 1.000000 
21 	 C 	 28.717936 	 31.573341 	 32.814073 	 C 	 1  ala 	 1.000000 
22 	 C 	 29.101325 	 32.178908 	 32.116720 	 C 	 1  ala 	 1.000000 
23 	 C 	 29.483547 	 31.750623 	 32.935547 	 C 	 1  ala 	 1.000000 
24 	 C 	 29.351113 	 31.571890 	 33.910491 	 C 	 1  ala 	 1.000000 
25 	 C 	 29.516922 	 31.055763 	 33.070181 	 C 	 1  ala 	 1.000000 
26 	 C 	 30.337005 	 30.562080 	 32.780801 	 C 	 1  ala 	 1.000000 
27 	 C 	 30.162741 	 30.014166 	 33.598984 	 C 	 1  ala 	 1.000000 
28 	 C 	 29.955116 	 29.324012 	 32.905745 	 C 	 1  ala 	 1.000000 
29 	 C 	 29.931502 	 29.602775 	 31.945676 	 C 	 1  ala 	 1.000000 
30 	 C 	 30.202129 	 30.472373 	 31.532687 	 C 	 1  ala 	 1.000000 
31 	 C 	 29.904417 	 29.904916 	 30.764989 	 C 	 1  ala 	 1.000000 
32 	 C 	 29.105573 	 29.397612 	 31.088240 	 C 	 1  ala 	 1.000000 
33 	 C 	 28.131716 	 29.187244 	 31.173960 	 C 	 1  ala 	 1.000000 
34 	 C 	 28.538503 	 29.301860 	 30.267656 	 C 	 1  ala 	 1.000000 
35 	 C 	 29.432282 	 28.952847 	 29.985967 	 C 	 1  ala 	 1.000000 
36 	 C 	 29.057169 	 29.486169 	 29.227774 	 C 	 1  ala 	 1.000000 
37 	 C 	 29.245312 	 28.514986 	 29.081468 	 C 	 1  ala 	 1.000000 
38 	 C 	 29.911904 	 28.362903 	 28.351724 	 C 	 1  ala 	 1.000000 
39 	 C 	 30.738888 	 28.688411 	 27.893311 	 C 	 1  ala 	 1.000000 
40 	 C 	 29.856430 	 29.140073 	 28.024721 	 C 	 1  ala 	 1.000000 
41 	 C 	 30.561531 	 29.416505 	 27.371716 	 C 	 1  ala 	 1.000000 
42 	 C 	 30.176504 	 30.203955 	 26.890388 	 C 	 1  ala 	 1.000000 
43 	 C 	 29.889133 	 29.841666 	 26.003729 	 C 	 1  ala 	 1.000000 
44 	 C 	 30.392755 	 30.254449 	 26.762659 	 C 	 1  ala 	 1.000000 
45 	 C 	 30.645092 	 31.027826 	 27.344221 	 C 	 1  ala 	 1.000000 
46 	 C 	 31.313420 	 31.524598 	 26.790547 	 C 	 1  ala 	 1.000000 
47 	 C 	 31.933443 	 31.792750 	 26.053210 	 C 	 1  ala 	 1.000000 
48 	 C 	 32.580333 	 32.143128 	 25.375886 	 C 	 1  ala 	 1.000000 
49 	 C 	 32.116131 	 31.341891 	 24.998347 	 C 	 1  ala 	 1.000000 
50 	 C 	 31.752982 	 30.868766 	 24.195680 	 C 	 1  ala 	 1.000000 
51 	 C 	 31.500889 	 30.112879 	 23.591458 	 C 	 1  ala 	 1.000000 
52 	 C 	 32.111928 	 30.819624 	 23.948030 	 C 	 1  ala 	 1.000000 
53 	 C 	 31.294254 	 31.326511 	 24.220933 	 C 	 1  ala 	 1.000000 
54 	 C 	 32.143138 	 31.789314 	 23.965571 	 C 	 1  ala 	 1.000000 
55 	 C 	 31.307497 	 31.814938 	 23.416894 	 C 	 1  ala 	 1.000000 
56 	 C 	 30.364789 	 31.865473 	 23.746662 	 C 	 1  ala 	 1.000000 
57 	 C 	 30.309942 	 31.049742 	 23.170837 	 C 	 1  ala 	 1.000000 
58 	 C 	 29.354509 	 30.806881 	 23.003010 	 C 	 1  ala 	 1.000000 
59 	 C 	 30.101912 	 31.433261 	 23.224453 	 C 	 1  ala 	 1.000000 
60 	 C 	 30.894871 	 31.630068 	 22.647840 	 C 	 1  ala 	 1.000000 
61 	 C 	 30.904170 	 31.722852 	 21.652197 	 C 	 1  ala 	 1.000000 
62 	 C 	 31.063500 	 32.029633 	 22.590546 	 C 	 1  ala 	 1.000000 
63 	 C 	 31.391103 	 32.420133 	 23.450887 	 C 	 1  ala 	 1.000000 
64 	 C 	 31.963427 	 32.891014 	 24.122241 	 C 	 1  ala 	 1.000000 
65 	 C 	 31.924255 	 31.906466 	 23.951562 	 C 	 1  ala 	 1.000000 
66 	 C 	 32.252857 	 32.816373 	 24.204724 	 C 	 1  ala 	 1.000000 
67 	 C 	 33.096275 	 33.340529 	 24.322648 	 C 	 1  ala 	 1.000000 
68 	 C 	 32.948199 	 32.697398 	 25.073951 	 C 	 1  ala 	 1.000000 
69 	 C 	 33.232092 	 33.356379 	 25.770478 	 C 	 1  ala 	 1.000000 
70 	 C 	 32.292861 	 33.229013 	 26.089262 	 C 	 1  ala 	 1.000000 
71 	 C 	 31.566521 	 32.541678 	 26.089539 	 C 	 1  ala 	 1.000000 
72 	 C 	 31.624339 	 32.369974 	 27.072990 	 C 	 1  ala 	 1.000000 
73 	 C 	 32.039998 	 32.783822 	 26.263078 	 C 	 1  ala 	 1.000000 
74 	 C 	 31.049032 	 32.670644 	 26.335025 	 C 	 1  ala 	 1.000000 
75 	 C 	 30.571744 	 33.383334 	 26.849097 	 C 	 1  ala 	 1.000000 
76 	 C 	 30.482968 	 34.043647 	 27.594822 	 C 	 1  ala 	 1.000000 
77 	 C 	 30.382420 	 33.529677 	 28.446717 	 C 	 1  ala 	 1.000000 
78 	 C 	 30.850474 	 34.033836 	 27.720942 	 C 	 1  ala 	 1.000000 
79 	 C 	 31.000368 	 35.004743 	 27.907682 	 C 	 1  ala 	 1.000000 
80 	 C 	 31.396325 	 35.870740 	 27.602284 	 C 	 1  ala 	 1.000000 
81 	 C 	 30.452617 	 35.564320 	 27.726870 	 C 	 1  ala 	 1.000000 
82 	 C 	 29.661157 	 35.964576 	 28.188807 	 C 	 1  ala 	 1.000000 
83 	 C 	 28.819050 	 35.986566 	 27.649945 	 C 	 1  ala 	 1.000000 
84 	 C 	 27.895599 	 35.759346 	 27.959154 	 C 	 1  ala 	 1.000000 
85 	 C 	 28.720643 	 35.663101 	 28.515966 	 C 	 1  ala 	 1.000000 
86 	 C 	 29.046870 	 35.495089 	 29.446207 	 C 	 1  ala 	 1.000000 
87 	 C 	 28.887143 	 34.513328 	 29.549320 	 C 	 1  ala 	 1.000000 
88 	 C 	 28.660317 	 34.654498 	 30.512970 	 C 	 1  ala 	 1.000000 
89 	 C 	 29.198762 	 35.103357 	 29.799806 	 C 	 1  ala 	 1.000000 
90 	 C 	 30.181530 	 35.279278 	 29.743075 	 C 	 1  ala 	 1.000000 
91 	 C 	 29.558304 	 35.187793 	 30.519748 	 C 	 1  ala 	 1.000000 
92 	 C 	 28.726901 	 34.656172 	 30.681445 	 C 	 1  ala 	 1.000000 
93 	 C 	 28.103263 	 33.941099 	 30.997274 	 C 	 1  ala 	 1.000000 
94 	 C 	 28.914489 	 33.609220 	 30.515850 	 C 	 1  ala 	 1.000000 
95 	 C 	 28.826835 	 33.798007 	 29.537752 	 C 	 1  ala 	 1.000000 
96 	 C 	 29.412129 	 33.117000 	 29.097683 	 C 	 1  ala 	 1.000000 
97 	 C 	 28.922908 	 32.278353 	 29.337129 	 C 	 1  ala 	 1.000000 
98 	 C 	 28.852343 	 32.692969 	 28.429872 	 C 	 1  ala 	 1.000000 
99 	 C 	 27.890783 	 32.905059 	 28.604286 	 C 	 1  ala 	 1.000000 
100 	 C 	 28.678695 	 32.992355 	 29.213854 	 C 	 1  ala 	 1.000000 
101 	 C 	 28.599644 	 32.653083 	 30.151216 	 C 	 1  ala 	 1.000000 
102 	 C 	 27.836932 	 32.683314 	 30.797247 	 C 	 1  ala 	 1.000000 
103 	 C 	 28.107630 	 33.631376 	 30.630209 	 C 	 1  ala 	 1.000000 
104 	 C 	 28.671714 	 34.398987 	 30.934484 	 C 	 1  ala 	 1.000000 
105 	 C 	 28.203285 	 33.554831 	 30.673763 	 C 	 1  ala 	 1.000000 
106 	 C 	 28.097270 	 32.808942 	 30.016183 	 C 	 1  ala 	 1.000000 
107 	 C 	 28.791760 	 33.120630 	 30.664669 	 C 	 1  ala 	 1.000000 
108 	 C 	 28.443690 	 33.411773 	 31.555782 	 C 	 1  ala 	 1.000000 
109 	 C 	 28.500356 	 32.766064 	 32.317260 	 C 	 1  ala 	 1.000000 
110 	 C 	 28.310468 	 33.469372 	 31.632205 	 C 	 1  ala 	 1.000000 
111 	 C 	 27.937457 	 32.734056 	 31.066366 	 C 	 1  ala 	 1.000000 
112 	 C 	 27.121265 	 33.289336 	 31.226038 	 C 	 1  ala 	 1.000000 
113 	 C 	 27.277859 	 32.579073 	 31.912337 	 C 	 1  ala 	 1.000000 
114 	 C 	 26.779457 	 33.307292 	 32.382754 	 C 	 1  ala 	 1.000000 
115 	 C 	 25.971282 	 33.326811 	 31.794134 	 C 	 1  ala 	 1.000000 
116 	 C 	 26.393778 	 32.526623 	 32.219807 	 C 	 1  ala 	 1.000000 
117 	 C 	 25.980599 	 33.380447 	 31.903156 	 C 	 1  ala 	 1.000000 
118 	 C 	 25.926099 	 32.432010 	 31.590912 	 C 	 1  ala 	 1.000000 
119 	 C 	 25.975205 	 31.515859 	 31.988725 	 C 	 1  ala 	 1.000000 
120 	 C 	 26.656786 	 31.715934 	 31.284866 	 C 	 1  ala 	 1.000000 
121 	 C 	 26.169671 	 31.067698 	 31.870109 	 C 	 1  ala 	 1.000000 
122 	 C 	 26.065184 	 31.985314 	 31.486619 	 C 	 1  ala 	 1.000000 
123 	 C 	 25.780425 	 32.696246 	 30.843589 	 C 	 1  ala 	 1.000000 
124 	 C 	 24.828420 	 32.953449 	 31.009523 	 C 	 1  ala 	 1.000000 
125 	 C 	 25.113433 	 32.081823 	 31.408316 	 C 	 1  ala 	 1.000000 
126 	 C 	 25.783986 	 31.607627 	 30.837792 	 C 	 1  ala 	 1.000000 
127 	 C 	 24.868753 	 31.778233 	 30.472769 	 C 	 1  ala 	 1.000000 
128 	 C 	 23.925594 	 31.961670 	 30.195639 	 C 	 1  ala 	 1.000000 
129 	 C 	 24.072927 	 32.357368 	 31.102125 	 C 	 1  ala 	 1.000000 
130 	 C 	 24.027332 	 32.041654 	 30.154366 	 C 	 1  ala 	 1.000000 
131 	 C 	 24.499812 	 31.409871 	 30.768869 	 C 	 1  ala 	 1.000000 
132 	 C 	 24.708782 	 30.519290 	 31.172846 	 C 	 1  ala 	 1.000000 
133 	 C 	 23.979414 	 30.889227 	 30.597373 	 C 	 1  ala 	 1.000000 
134 	 C 	 24.161681 	 31.450145 	 29.789815 	 C 	 1  ala 	 1.000000 
135 	 C 	 24.783343 	 30.972235 	 30.410410 	 C 	 1  ala 	 1.000000 
136 	 C 	 23.900998 	 31.077814 	 29.951804 	 C 	 1  ala 	 1.000000 
137 	 C 	 22.980669 	 31.459456 	 29.866105 	 C 	 1  ala 	 1.000000 
138 	 C 	 22.836595 	 30.557044 	 29.460033 	 C 	 1  ala 	 1.000000 
139 	 C 	 23.472922 	 29.786617 	 29.499154 	 C 	 1  ala 	 1.000000 
140 	 C 	 23.044541 	 28.913229 	 29.267458 	 C 	 1  ala 	 1.000000 
141 	 C 	 22.275279 	 28.297765 	 29.095880 	 C 	 1  ala 	 1.000000 
142 	 C 	 22.377908 	 28.008827 	 30.047710 	 C 	 1  ala 	 1.000000 
143 	 C 	 21.977843 	 28.061627 	 29.132746 	 C 	 1  ala 	 1.000000 
144 	 C 	 22.472881 	 28.481983 	 29.893165 	 C 	 1  ala 	 1.000000 
145 	 C 	 23.076667 	 28.563169 	 30.686166 	 C 	 1  ala 	 1.000000 
146 	 C 	 23.823891 	 28.010765 	 31.055634 	 C 	 1  ala 	 1.000000 
147 	 C 	 24.328195 	 28.778536 	 30.660405 	 C 	 1  ala 	 1.000000 
148 	 C 	 24.213599 	 29.428966 	 31.411277 	 C 	 1  ala 	 1.000000 
149 	 C 	 23.238636 	 29.502935 	 31.620980 	 C 	 1  ala 	 1.000000 
150 	 C 	 22.478947 	 30.152974 	 31.603064 	 C 	 1  ala 	 1.000000 
151 	 C 	 22.412474 	 31.065645 	 32.006317 	 C 	 1  ala 	 1.000000 
152 	 C 	 22.854495 	 31.617992 	 32.713091 	 C 	 1  ala 	 1.000000 
153 	 C 	 23.848650 	 31.551399 	 32.628108 	 C 	 1  ala 	 1.000000 
154 	 C 	 23.853449 	 31.773531 	 33.603113 	 C 	 1  ala 	 1.000000 
155 	 C 	 23.295850 	 31.260865 	 34.255996 	 C 	 1  ala 	 1.000000 
156 	 C 	 23.563526 	 30.676857 	 35.022341 	 C 	 1  ala 	 1.000000 
157 	 C 	 23.144138 	 30.179422 	 34.262952 	 C 	 1  ala 	 1.000000 
158 	 C 	 23.231205 	 30.297097 	 33.273724 	 C 	 1  ala 	 1.000000 
159 	 C 	 23.822041 	 30.173536 	 32.476450 	 C 	 1  ala 	 1.000000 
160 	 C 	 24.340393 	 31.025434 	 32.401741 	 C 	 1  ala 	 1.000000 
161 	 C 	 24.834936 	 31.890156 	 32.314088 	 C 	 1  ala 	 1.000000 
162 	 C 	 23.860981 	 32.105503 	 32.243109 	 C 	 1  ala 	 1.000000 
163 	 C 	 24.091820 	 33.004267 	 32.615852 	 C 	 1  ala 	 1.000000 
164 	 C 	 24.162792 	 34.000251 	 32.670420 	 C 	 1  ala 	 1.000000 
165 	 C 	 24.748733 	 34.430737 	 33.356973 	 C 	 1  ala 	 1.000000 
166 	 C 	 24.078190 	 34.307928 	 34.088609 	 C 	 1  ala 	 1.000000 
167 	 C 	 24.486579 	 34.945427 	 33.435299 	 C 	 1  ala 	 1.000000 
168 	 C 	 25.415653 	 34.580508 	 33.495761 	 C 	 1  ala 	 1.000000 
169 	 C 	 24.738611 	 34.611975 	 34.231032 	 C 	 1  ala 	 1.000000 
170 	 C 	 25.517609 	 34.257530 	 34.748266 	 C 	 1  ala 	 1.000000 
171 	 C 	 25.909998 	 33.340312 	 34.817128 	 C 	 1  ala 	 1.000000 
172 	 C 	 25.748934 	 33.212996 	 33.838430 	 C 	 1  ala 	 1.000000 
173 	 C 	 25.431355 	 33.435345 	 32.916636 	 C 	 1  ala 	 1.000000 
174 	 C 	 25.097962 	 33.411300 	 33.859117 	 C 	 1  ala 	 1.000000 
175 	 C 	 25.601591 	 33.984541 	 33.212779 	 C 	 1  ala 	 1.000000 
176 	 C 	 25.765100 	 34.841000 	 32.723144 	 C 	 1  ala 	 1.000000 
177 	 C 	 24.961616 	 34.249532 	 32.790806 	 C 	 1  ala 	 1.000000 
178 	 C 	 24.571773 	 35.117901 	 32.484281 	 C 	 1  ala 	 1.000000 
179 	 C 	 25.288708 	 34.828613 	 31.849997 	 C 	 1  ala 	 1.000000 
180 	 C 	 25.377586 	 33.886764 	 32.174066 	 C 	 1  ala 	 1.000000 
181 	 C 	 25.217783 	 33.381345 	 31.326118 	 C 	 1  ala 	 1.000000 
182 	 C 	 25.132734 	 32.385301 	 31.351841 	 C 	 1  ala 	 1.000000 
183 	 C 	 24.244318 	 31.960138 	 31.524913 	 C 	 1  ala 	 1.000000 
184 	 C 	 23.515096 	 32.401755 	 31.002219 	 C 	 1  ala 	 1.000000 
185 	 C 	 23.294976 	 33.328346 	 31.307139 	 C 	 1  ala 	 1.000000 
186 	 C 	 22.706666 	 32.968125 	 32.031108 	 C 	 1  ala 	 1.000000 
187 	 C 	 22.372330 	 32.373638 	 32.762412 	 C 	 1  ala 	 1.000000 
188 	 C 	 21.698043 	 31.938311 	 33.358925 	 C 	 1  ala 	 1.000000 
189 	 C 	 22.674755 	 32.060593 	 33.182624 	 C 	 1  ala 	 1.000000 
190 	 C 	 21.776396 	 32.282553 	 32.803567 	 C 	 1  ala 	 1.000000 
191 	 C 	 22.231920 	 31.748385 	 32.091413 	 C 	 1  ala 	 1.000000 
192 	 C 	 21.392060 	 31.808638 	 32.630863 	 C 	 1  ala 	 1.000000 
193 	 C 	 20.894538 	 31.895560 	 31.767778 	 C 	 1  ala 	 1.000000 
194 	 C 	 21.291859 	 32.606046 	 31.186963 	 C 	 1  ala 	 1.000000 
195 	 C 	 21.216637 	 31.942412 	 30.442698 	 C 	 1  ala 	 1.000000 
196 	 C 	 20.409159 	 32.475019 	 30.189104 	 C 	 1  ala 	 1.000000 
197 	 C 	 19.601545 	 31.996598 	 29.844324 	 C 	 1  ala 	 1.000000 
198 	 C 	 18.602834 	 32.033630 	 29.809635 	 C 	 1  ala 	 1.000000 
199 	 C 	 18.933328 	 32.947710 	 29.574623 	 C 	 1  ala 	 1.000000 
200 	 C 	 18.656505 	 32.325427 	 30.306833 	 C 	 1  ala 	 1.000000 
201 	 C 	 18.587694 	 31.699393 	 31.083587 	 C 	 1  ala 	 1.000000 
202 	 C 	 18.834521 	 31.548452 	 30.126355 	 C 	 1  ala 	 1.000000 
203 	 C 	 19.831894 	 31.557126 	 30.054444 	 C 	 1  ala 	 1.000000 
204 	 C 	 20.583141 	 32.018279 	 29.582250 	 C 	 1  ala 	 1.000000 
205 	 C 	 20.523565 	 31.419640 	 30.381051 	 C 	 1  ala 	 1.000000 
206 	 C 	 20.373870 	 31.353076 	 31.367540 	 C 	 1  ala 	 1.000000 
207 	 C 	 19.800498 	 30.909182 	 32.056163 	 C 	 1  ala 	 1.000000 
208 	 C 	 19.891236 	 31.847497 	 32.389826 	 C 	 1  ala 	 1.000000 
209 	 C 	 19.190851 	 31.770272 	 33.099401 	 C 	 1  ala 	 1.000000 
210 	 C 	 19.830606 	 31.392318 	 33.768627 	 C 	 1  ala 	 1.000000 
211 	 C 	 19.801322 	 31.212742 	 32.785319 	 C 	 1  ala 	 1.000000 
212 	 C 	 19.360699 	 31.035090 	 31.905380 	 C 	 1  ala 	 1.000000 
213 	 C 	 19.214318 	 30.099120 	 32.225587 	 C 	 1  ala 	 1.000000 
214 	 C 	 19.952706 	 29.605116 	 31.766520 	 C 	 1  ala 	 1.000000 
215 	 C 	 20.779918 	 30.165553 	 31.726116 	 C 	 1  ala 	 1.000000 
216 	 C 	 21.490484 	 30.859025 	 31.845244 	 C 	 1  ala 	 1.000000 
217 	 C 	 21.137745 	 31.729664 	 32.188119 	 C 	 1  ala 	 1.000000 
218 	 C 	 20.750501 	 30.871994 	 32.526416 	 C 	 1  ala 	 1.000000 
219 	 C 	 19.757933 	 30.801162 	 32.427468 	 C 	 1  ala 	 1.000000 
220 	 C 	 19.342568 	 29.997580 	 32.001172 	 C 	 1  ala 	 1.000000 
221 	 C 	 19.852534 	 30.695740 	 31.498670 	 C 	 1  ala 	 1.000000 
222 	 C 	 19.269282 	 30.829743 	 30.697508 	 C 	 1  ala 	 1.000000 
223 	 C 	 18.517946 	 31.137745 	 30.113874 	 C 	 1  ala 	 1.000000 
224 	 C 	 18.278247 	 30.723770 	 29.235712 	 C 	 1  ala 	 1.000000 
225 	 C 	 17.397223 	 30.265349 	 29.352528 	 C 	 1  ala 	 1.000000 
226 	 C 	 18.357947 	 30.517227 	 29.236054 	 C 	 1  ala 	 1.000000 
227 	 C 	 18.112771 	 29.564459 	 29.056827 	 C 	 1  ala 	 1.000000 
228 	 C 	 17.729064 	 30.323170 	 28.530400 	 C 	 1  ala 	 1.000000 
229 	 C 	 17.913613 	 30.944690 	 29.291751 	 C 	 1  ala 	 1.000000 
230 	 C 	 18.182519 	 30.139541 	 28.763145 	 C 	 1  ala 	 1.000000 
231 	 C 	 19.131697 	 30.147493 	 28.448505 	 C 	 1  ala 	 1.000000 
232 	 C 	 18.531268 	 30.350216 	 29.222061 	 C 	 1  ala 	 1.000000 
233 	 C 	 18.344865 	 31.271327 	 28.880286 	 C 	 1  ala 	 1.000000 
234 	 C 	 17.934699 	 32.132926 	 29.179303 	 C 	 1  ala 	 1.000000 
235 	 C 	 17.437023 	 32.709022 	 28.530895 	 C 	 1  ala 	 1.000000 
236 	 C 	 17.745605 	 32.681762 	 29.481702 	 C 	 1  ala 	 1.000000 
237 	 C 	 16.983408 	 33.228774 	 29.135534 	 C 	 1  ala 	 1.000000 
238 	 C 	 16.384734 	 34.010161 	 28.959397 	 C 	 1  ala 	 1.000000 
239 	 C 	 15.907260 	 33.441639 	 28.289470 	 C 	 1  ala 	 1.000000 
240 	 C 	 16.214574 	 34.138840 	 28.937134 	 C 	 1  ala 	 1.000000 
241 	 C 	 15.497917 	 34.138681 	 28.239708 	 C 	 1  ala 	 1.000000 
242 	 C 	 16.042265 	 34.705790 	 28.857829 	 C 	 1  ala 	 1.000000 
243 	 C 	 15.584037 	 33.859359 	 29.129087 	 C 	 1  ala 	 1.000000 
244 	 C 	 15.479155 	 33.385324 	 30.003324 	 C 	 1  ala 	 1.000000 
245 	 C 	 14.766878 	 33.060905 	 29.380898 	 C 	 1  ala 	 1.000000 
246 	 C 	 14.213043 	 33.132144 	 28.551325 	 C 	 1  ala 	 1.000000 
247 	 C 	 14.054378 	 32.182625 	 28.280696 	 C 	 1  ala 	 1.000000 
248 	 C 	 14.637956 	 32.857509 	 27.829066 	 C 	 1  ala 	 1.000000 
249 	 C 	 15.359805 	 33.188933 	 28.436595 	 C 	 1  ala 	 1.000000 
250 	 C 	 14.498200 	 32.928206 	 28.001096 	 C 	 1  ala 	 1.000000 
251 	 C 	 14.458481 	 32.226375 	 28.712331 	 C 	 1  ala 	 1.000000 
252 	 C 	 14.710617 	 32.064867 	 27.758212 	 C 	 1  ala 	 1.000000 
253 	 C 	 15.662335 	 31.830829 	 27.956855 	 C 	 1  ala 	 1.000000 
254 	 C 	 16.242076 	 31.122017 	 28.358709 	 C 	 1  ala 	 1.000000 
255 	 C 	 16.404710 	 30.306415 	 27.803422 	 C 	 1  ala 	 1.000000 
256 	 C 	 15.550909 	 29.787820 	 27.757776 	 C 	 1  ala 	 1.000000 
257 	 C 	 15.266722 	 30.312465 	 28.560263 	 C 	 1  ala 	 1.000000 
258 	 C 	 16.209303 	 30.275357 	 28.228353 	 C 	 1  ala 	 1.000000 
259 	 C 	 15.471393 	 29.733602 	 28.630835 	 C 	 1  ala 	 1.000000 
260 	 C 	 15.953720 	 30.590933 	 28.810679 	 C 	 1  ala 	 1.000000 
261 	 C 	 15.162921 	 29.986441 	 28.906733 	 C 	 1  ala 	 1.000000 
262 	 C 	 14.815999 	 29.705991 	 28.011751 	 C 	 1  ala 	 1.000000 
263 	 C 	 15.557434 	 29.589208 	 28.672535 	 C 	 1  ala 	 1.000000 
264 	 C 	 15.673050 	 28.650582 	 28.347553 	 C 	 1  ala 	 1.000000 
265 	 C 	 15.904573 	 28.022324 	 29.090310 	 C 	 1  ala 	 1.000000 
266 	 C 	 16.310033 	 27.962681 	 28.178145 	 C 	 1  ala 	 1.000000 
267 	 C 	 15.411770 	 27.527108 	 28.236457 	 C 	 1  ala 	 1.000000 
268 	 C 	 15.220279 	 27.552409 	 27.255289 	 C 	 1  ala 	 1.000000 
269 	 C 	 15.284711 	 28.410066 	 26.745119 	 C 	 1  ala 	 1.000000 
270 	 C 	 15.524254 	 27.507259 	 27.102273 	 C 	 1  ala 	 1.000000 
271 	 C 	 16.415430 	 27.252870 	 26.726650 	 C 	 1  ala 	 1.000000 
272 	 C 	 16.791751 	 26.916301 	 25.863457 	 C 	 1  ala 	 1.000000 
273 	 C 	 16.589663 	 27.071951 	 26.830376 	 C 	 1  ala 	 1.000000 
274 	 C 	 16.503364 	 28.043109 	 27.052647 	 C 	 1  ala 	 1.000000 
275 	 C 	 15.824198 	 28.546379 	 26.518369 	 C 	 1  ala 	 1.000000 
276 	 C 	 16.696789 	 28.965580 	 26.769075 	 C 	 1  ala 	 1.000000 
277 	 C 	 16.634096 	 29.798194 	 26.218781 	 C 	 1  ala 	 1.000000 
278 	 C 	 15.910702 	 29.146206 	 25.991598 	 C 	 1  ala 	 1.000000 
279 	 C 	 16.793640 	 29.337798 	 26.420216 	 C 	 1  ala 	 1.000000 
280 	 C 	 17.359336 	 30.063267 	 26.028192 	 C 	 1  ala 	 1.000000 
281 	 C 	 17.818823 	 29.230872 	 25.718369 	 C 	 1  ala 	 1.000000 
282 	 C 	 17.218164 	 29.948551 	 26.070713 	 C 	 1  ala 	 1.000000 
283 	 C 	 16.870803 	 29.012755 	 26.010502 	 C 	 1  ala 	 1.000000 
284 	 C 	 17.158123 	 29.237868 	 25.079496 	 C 	 1  ala 	 1.000000 
285 	 C 	 17.450107 	 30.165598 	 24.846985 	 C 	 1  ala 	 1.000000 
286 	 C 	 17.295543 	 29.222611 	 24.552222 	 C 	 1  ala 	 1.000000 
287 	 C 	 16.301089 	 29.296254 	 24.477131 	 C 	 1  ala 	 1.000000 
288 	 C 	 15.782452 	 29.635614 	 25.261892 	 C 	 1  ala 	 1.000000 
289 	 C 	 16.105380 	 29.273012 	 26.136099 	 C 	 1  ala 	 1.000000 
290 	 C 	 16.777014 	 28.548140 	 25.982903 	 C 	 1  ala 	 1.000000 
291 	 C 	 16.435249 	 27.616617 	 26.107241 	 C 	 1  ala 	 1.000000 
292 	 C 	 16.875771 	 28.062418 	 26.886473 	 C 	 1  ala 	 1.000000 
293 	 C 	 17.288176 	 27.558494 	 27.645407 	 C 	 1  ala 	 1.000000 
294 	 C 	 16.297028 	 27.676499 	 27.584566 	 C 	 1  ala 	 1.000000 
295 	 C 	 17.073996 	 27.254080 	 28.051346 	 C 	 1  ala 	 1.000000 
296 	 C 	 16.156212 	 27.605669 	 27.866795 	 C 	 1  ala 	 1.000000 
297 	 C 	 15.323856 	 27.554484 	 28.418667 	 C 	 1  ala 	 1.000000 
298 	 C 	 14.795677 	 28.071673 	 29.092123 	 C 	 1  ala 	 1.000000 
299 	 C 	 15.365231 	 28.345889 	 28.317259 	 C 	 1  ala 	 1.000000 
300 	 C 	 14.937132 	 29.242465 	 28.203755 	 C 	 1  ala 	 1.000000 
301 	 C 	 14.537386 	 28.667421 	 27.489944 	 C 	 1  ala 	 1.000000 
302 	 C 	 13.906288 	 29.082660 	 26.834740 	 C 	 1  ala 	 1.000000 
303 	 C 	 13.632655 	 29.909150 	 26.342765 	 C 	 1  ala 	 1.000000 
304 	 C 	 13.257556 	 29.408352 	 25.562700 	 C 	 1  ala 	 1.000000 
305 	 C 	 12.432672 	 28.894206 	 25.327708 	 C 	 1  ala 	 1.000000 
306 	 C 	 11.881827 	 28.121720 	 25.643674 	 C 	 1  ala 	 1.000000 
307 	 C 	 11.986425 	 27.304065 	 26.209802 	 C 	 1  ala 	 1.000000 
308 	 C 	 11.493341 	 27.130145 	 25.357381 	 C 	 1  ala 	 1.000000 
309 	 C 	 11.189673 	 28.060437 	 25.563157 	 C 	 1  ala 	 1.000000 
310 	 C 	 10.208363 	 28.196553 	 25.427132 	 C 	 1  ala 	 1.000000 
311 	 C 	 9.309184 	 28.633415 	 25.402041 	 C 	 1  ala 	 1.000000 
312 	 C 	 9.179929 	 28.549291 	 24.414005 	 C 	 1  ala 	 1.000000 
313 	 C 	 8.709826 	 27.972813 	 23.745666 	 C 	 1  ala 	 1.000000 
314 	 C 	 8.691706 	 27.677309 	 24.700836 	 C 	 1  ala 	 1.000000 
315 	 C 	 8.879216 	 26.727011 	 24.949378 	 C 	 1  ala 	 1.000000 
316 	 C 	 9.794831 	 26.332510 	 24.871802 	 C 	 1  ala 	 1.000000 
317 	 C 	 9.966218 	 25.352079 	 24.968662 	 C 	 1  ala 	 1.000000 
318 	 C 	 10.401907 	 25.151831 	 24.091122 	 C 	 1  ala 	 1.000000 
319 	 C 	 11.323282 	 25.064042 	 24.469753 	 C 	 1  ala 	 1.000000 
320 	 C 	 11.414294 	 24.625678 	 25.363931 	 C 	 1  ala 	 1.000000 
321 	 C 	 12.101940 	 25.123604 	 25.892336 	 C 	 1  ala 	 1.000000 
322 	 C 	 11.575037 	 25.956630 	 26.060979 	 C 	 1  ala 	 1.000000 
323 	 C 	 12.386530 	 26.351041 	 25.629794 	 C 	 1  ala 	 1.000000 
324 	 C 	 12.357030 	 26.839315 	 24.757602 	 C 	 1  ala 	 1.000000 
325 	 C 	 12.095886 	 27.606602 	 24.171876 	 C 	 1  ala 	 1.000000 
326 	 C 	 12.446399 	 26.991343 	 24.877990 	 C 	 1  ala 	 1.000000 
327 	 C 	 12.141315 	 26.901863 	 25.826103 	 C 	 1  ala 	 1.000000 
328 	 C 	 12.721939 	 27.406379 	 26.465118 	 C 	 1  ala 	 1.000000 
329 	 C 	 12.766668 	 26.449392 	 26.178454 	 C 	 1  ala 	 1.000000 
330 	 C 	 12.982315 	 25.630791 	 25.646112 	 C 	 1  ala 	 1.000000 
331 	 C 	 13.624385 	 26.386517 	 25.775041 	 C 	 1  ala 	 1.000000 
332 	 C 	 13.271717 	 25.672323 	 26.379649 	 C 	 1  ala 	 1.000000 
333 	 C 	 12.534746 	 26.066239 	 26.928924 	 C 	 1  ala 	 1.000000 
334 	 C 	 12.627411 	 27.052867 	 26.794841 	 C 	 1  ala 	 1.000000 
335 	 C 	 12.580768 	 26.055855 	 26.856425 	 C 	 1  ala 	 1.000000 
336 	 C 	 12.770068 	 25.445896 	 27.625915 	 C 	 1  ala 	 1.000000 
337 	 C 	 12.861841 	 25.923613 	 26.752208 	 C 	 1  ala 	 1.000000 
338 	 C 	 12.782899 	 26.090135 	 25.769336 	 C 	 1  ala 	 1.000000 
339 	 C 	 12.527985 	 25.125479 	 25.702575 	 C 	 1  ala 	 1.000000 
340 	 C 	 11.823826 	 24.895280 	 26.374265 	 C 	 1  ala 	 1.000000 
341 	 C 	 11.011441 	 25.020650 	 26.943751 	 C 	 1  ala 	 1.000000 
342 	 C 	 11.768456 	 24.371699 	 27.019858 	 C 	 1  ala 	 1.000000 
343 	 C 	 11.490583 	 23.895921 	 27.854377 	 C 	 1  ala 	 1.000000 
344 	 C 	 12.104627 	 24.071394 	 27.084858 	 C 	 1  ala 	 1.000000 
345 	 C 	 11.983538 	 23.316076 	 26.440784 	 C 	 1  ala 	 1.000000 
346 	 C 	 12.578892 	 22.862110 	 27.103708 	 C 	 1  ala 	 1.000000 
347 	 C 	 13.248962 	 22.239607 	 27.508055 	 C 	 1  ala 	 1.000000 
348 	 C 	 13.957007 	 21.572937 	 27.275197 	 C 	 1  ala 	 1.000000 
349 	 C 	 13.718805 	 21.082432 	 28.113448 	 C 	 1  ala 	 1.000000 
350 	 C 	 13.161203 	 20.592552 	 27.443300 	 C 	 1  ala 	 1.000000 
351 	 C 	 13.908293 	 20.832497 	 28.063205 	 C 	 1  ala 	 1.000000 
352 	 C 	 13.408401 	 20.916293 	 27.201181 	 C 	 1  ala 	 1.000000 
353 	 C 	 14.293207 	 21.037900 	 27.650991 	 C 	 1  ala 	 1.000000 
354 	 C 	 13.784858 	 20.506701 	 26.973195 	 C 	 1  ala 	 1.000000 
355 	 C 	 13.021391 	 20.480533 	 26.327878 	 C 	 1  ala 	 1.000000 
356 	 C 	 12.403248 	 20.048738 	 25.671028 	 C 	 1  ala 	 1.000000 
357 	 C 	 11.610677 	 20.092030 	 25.062787 	 C 	 1  ala 	 1.000000 
358 	 C 	 10.966046 	 20.839080 	 25.225167 	 C 	 1  ala 	 1.000000 
359 	 C 	 10.392741 	 20.384793 	 24.543298 	 C 	 1  ala 	 1.000000 
360 	 C 	 10.352706 	 20.536255 	 23.555646 	 C 	 1  ala 	 1.000000 
361 	 C 	 10.171135 	 21.410543 	 24.005816 	 C 	 1  ala 	 1.000000 
362 	 C 	 10.462924 	 22.033011 	 23.279599 	 C 	 1  ala 	 1.000000 
363 	 C 	 10.763873 	 22.120430 	 22.329973 	 C 	 1  ala 	 1.000000 
364 	 C 	 9.782251 	 22.131832 	 22.520470 	 C 	 1  ala 	 1.000000 
365 	 C 	 10.180496 	 21.733911 	 21.693996 	 C 	 1  ala 	 1.000000 
366 	 C 	 9.537559 	 21.651437 	 22.455461 	 C 	 1  ala 	 1.000000 
367 	 C 	 9.908386 	 22.573418 	 22.566985 	 C 	 1  ala 	 1.000000 
368 	 C 	 9.235424 	 21.849815 	 22.720349 	 C 	 1  ala 	 1.000000 
369 	 C 	 8.414681 	 21.428626 	 23.106329 	 C 	 1  ala 	 1.000000 
370 	 C 	 7.891242 	 21.446755 	 22.254458 	 C 	 1  ala 	 1.000000 
371 	 C 	 7.024798 	 21.697797 	 21.822889 	 C 	 1  ala 	 1.000000 
372 	 C 	 6.514844 	 20.951814 	 22.251207 	 C 	 1  ala 	 1.000000 
373 	 C 	 7.034040 	 21.410028 	 22.972646 	 C 	 1  ala 	 1.000000 
374 	 C 	 6.303902 	 21.043443 	 23.549285 	 C 	 1  ala 	 1.000000 
375 	 C 	 5.487044 	 21.123869 	 24.120490 	 C 	 1  ala 	 1.000000 
376 	 C 	 6.189532 	 21.377306 	 23.455448 	 C 	 1  ala 	 1.000000 
377 	 C 	 6.222732 	 20.699187 	 24.189650 	 C 	 1  ala 	 1.000000 
378 	 C 	 5.763910 	 21.163931 	 24.946945 	 C 	 1  ala 	 1.000000 
379 	 C 	 6.640732 	 21.210888 	 25.425461 	 C 	 1  ala 	 1.000000 
380 	 C 	 6.397749 	 22.176637 	 25.516497 	 C 	 1  ala 	 1.000000 
381 	 C 	 7.276467 	 22.622951 	 25.685788 	 C 	 1  ala 	 1.000000 
382 	 C 	 7.606080 	 23.530218 	 25.424595 	 C 	 1  ala 	 1.000000 
383 	 C 	 6.698118 	 23.921697 	 25.574093 	 C 	 1  ala 	 1.000000 
384 	 C 	 7.243273 	 23.857385 	 26.409958 	 C 	 1  ala 	 1.000000 
385 	 C 	 6.364712 	 23.456112 	 26.669013 	 C 	 1  ala 	 1.000000 
386 	 C 	 5.744500 	 23.754193 	 25.943421 	 C 	 1  ala 	 1.000000 
387 	 C 	 5.895714 	 22.823892 	 25.609242 	 C 	 1  ala 	 1.000000 
388 	 C 	 5.968663 	 23.629021 	 25.020645 	 C 	 1  ala 	 1.000000 
389 	 C 	 5.246306 	 23.449726 	 24.352773 	 C 	 1  ala 	 1.000000 
390 	 C 	 5.120491 	 22.953536 	 23.493724 	 C 	 1  ala 	 1.000000 
391 	 C 	 5.804582 	 23.500353 	 23.011011 	 C 	 1  ala 	 1.000000 
392 	 C 	 5.908409 	 22.718304 	 22.396503 	 C 	 1  ala 	 1.000000 
393 	 C 	 5.402935 	 22.763753 	 23.258147 	 C 	 1  ala 	 1.000000 
394 	 C 	 5.344314 	 23.496865 	 22.580571 	 C 	 1  ala 	 1.000000 
395 	 C 	 6.309447 	 23.706762 	 22.736970 	 C 	 1  ala 	 1.000000 
396 	 C 	 5.865780 	 22.848830 	 22.996029 	 C 	 1  ala 	 1.000000 
397 	 C 	 6.389355 	 23.592060 	 23.412536 	 C 	 1  ala 	 1.000000 
398 	 C 	 6.469739 	 23.303719 	 22.458388 	 C 	 1  ala 	 1.000000 
399 	 C 	 7.338105 	 23.661319 	 22.114783 	 C 	 1  ala 	 1.000000 
400 	 C 	 8.004518 	 24.203772 	 22.626290 	 C 	 1  ala 	 1.000000 
401 	 C 	 7.167052 	 24.744394 	 22.546427 	 C 	 1  ala 	 1.000000 
402 	 C 	 8.049839 	 24.488136 	 22.152704 	 C 	 1  ala 	 1.000000 
403 	 C 	 7.806295 	 23.518780 	 22.120552 	 C 	 1  ala 	 1.000000 
404 	 C 	 7.619770 	 23.977859 	 22.989145 	 C 	 1  ala 	 1.000000 
405 	 C 	 7.137011 	 23.260760 	 23.491849 	 C 	 1  ala 	 1.000000 
406 	 C 	 7.580273 	 23.026699 	 22.626554 	 C 	 1  ala 	 1.000000 
407 	 C 	 8.037500 	 23.541291 	 21.901200 	 C 	 1  ala 	 1.000000 
408 	 C 	 8.131774 	 23.358387 	 20.922600 	 C 	 1  ala 	 1.000000 
409 	 C 	 8.644303 	 24.081490 	 21.385673 	 C 	 1  ala 	 1.000000 
410 	 C 	 7.860590 	 24.670495 	 21.188526 	 C 	 1  ala 	 1.000000 
411 	 C 	 7.014603 	 24.753212 	 20.661776 	 C 	 1  ala 	 1.000000 
412 	 C 	 6.311183 	 24.969882 	 21.338721 	 C 	 1  ala 	 1.000000 
413 	 C 	 5.313757 	 24.993690 	 21.271090 	 C 	 1  ala 	 1.000000 
414 	 C 	 6.102878 	 25.544342 	 20.998931 	 C 	 1  ala 	 1.000000 
415 	 C 	 6.293642 	 24.861815 	 20.293405 	 C 	 1  ala 	 1.000000 
416 	 C 	 7.052866 	 25.512054 	 20.265701 	 C 	 1  ala 	 1.000000 
417 	 C 	 6.895463 	 25.703892 	 19.296978 	 C 	 1  ala 	 1.000000 
418 	 C 	 6.930795 	 26.601719 	 19.735905 	 C 	 1  ala 	 1.000000 
419 	 C 	 6.417752 	 25.753892 	 19.869982 	 C 	 1  ala 	 1.000000 
420 	 C 	 6.086662 	 25.999062 	 18.958790 	 C 	 1  ala 	 1.000000 
421 	 C 	 6.093739 	 25.029524 	 19.203630 	 C 	 1  ala 	 1.000000 
422 	 C 	 6.314087 	 25.688698 	 18.484646 	 C 	 1  ala 	 1.000000 
423 	 C 	 6.032793 	 25.148510 	 19.277786 	 C 	 1  ala 	 1.000000 
424 	 C 	 6.708396 	 24.803527 	 18.626214 	 C 	 1  ala 	 1.000000 
425 	 C 	 7.568299 	 24.300137 	 18.541560 	 C 	 1  ala 	 1.000000 
426 	 C 	 7.311492 	 23.902771 	 19.422554 	 C 	 1  ala 	 1.000000 
427 	 C 	 7.782302 	 23.205980 	 18.881424 	 C 	 1  ala 	 1.000000 
428 	 C 	 8.078968 	 22.657040 	 18.099981 	 C 	 1  ala 	 1.000000 
429 	 C 	 8.829720 	 23.253907 	 18.383038 	 C 	 1  ala 	 1.000000 
430 	 C 	 9.580528 	 23.271936 	 17.722764 	 C 	 1  ala 	 1.000000 
431 	 C 	 10.169481 	 23.475003 	 16.940525 	 C 	 1  ala 	 1.000000 
432 	 C 	 10.777291 	 23.591289 	 17.726046 	 C 	 1  ala 	 1.000000 
433 	 C 	 9.883273 	 23.960487 	 17.979867 	 C 	 1  ala 	 1.000000 
434 	 C 	 8.977584 	 24.315272 	 18.211931 	 C 	 1  ala 	 1.000000 
435 	 C 	 9.371215 	 23.403508 	 18.329153 	 C 	 1  ala 	 1.000000 
436 	 C 	 9.338832 	 23.877007 	 17.448955 	 C 	 1  ala 	 1.000000 
437 	 C 	 8.540489 	 23.274969 	 17.463034 	 C 	 1  ala 	 1.000000 
438 	 C 	 9.142968 	 22.507628 	 17.243474 	 C 	 1  ala 	 1.000000 
439 	 C 	 10.036197 	 22.077651 	 17.112093 	 C 	 1  ala 	 1.000000 
440 	 C 	 9.225809 	 21.673532 	 17.536308 	 C 	 1  ala 	 1.000000 
441 	 C 	 9.017753 	 22.100157 	 16.656135 	 C 	 1  ala 	 1.000000 
442 	 C 	 9.981866 	 22.353643 	 16.735067 	 C 	 1  ala 	 1.000000 
443 	 C 	 9.486145 	 21.485934 	 16.771704 	 C 	 1  ala 	 1.000000 
444 	 C 	 10.325984 	 21.380612 	 17.304224 	 C 	 1  ala 	 1.000000 
445 	 C 	 9.993684 	 21.220194 	 18.233656 	 C 	 1  ala 	 1.000000 
446 	 C 	 9.111641 	 21.600435 	 17.955417 	 C 	 1  ala 	 1.000000 
447 	 C 	 9.309918 	 20.623579 	 17.875177 	 C 	 1  ala 	 1.000000 
448 	 C 	 8.430745 	 20.242753 	 18.161582 	 C 	 1  ala 	 1.000000 
449 	 C 	 9.193026 	 20.570813 	 17.603635 	 C 	 1  ala 	 1.000000 
450 	 C 	 9.405857 	 21.522761 	 17.383413 	 C 	 1  ala 	 1.000000 
451 	 C 	 9.931973 	 22.071331 	 18.033239 	 C 	 1  ala 	 1.000000 
452 	 C 	 10.204637 	 22.343414 	 17.110403 	 C 	 1  ala 	 1.000000 
453 	 C 	 9.458865 	 22.256880 	 17.770962 	 C 	 1  ala 	 1.000000 
454 	 C 	 9.047786 	 22.753613 	 17.006586 	 C 	 1  ala 	 1.000000 
455 	 C 	 9.051245 	 22.115488 	 17.776511 	 C 	 1  ala 	 1.000000 
456 	 C 	 8.695918 	 22.364847 	 18.677379 	 C 	 1  ala 	 1.000000 
457 	 C 	 9.117976 	 22.252088 	 17.777850 	 C 	 1  ala 	 1.000000 
458 	 C 	 9.214482 	 21.664764 	 18.581428 	 C 	 1  ala 	 1.000000 
459 	 C 	 9.372815 	 20.683768 	 18.469274 	 C 	 1  ala 	 1.000000 
460 	 C 	 8.585388 	 20.145683 	 18.168569 	 C 	 1  ala 	 1.000000 
461 	 C 	 8.511090 	 20.914022 	 18.804286 	 C 	 1  ala 	 1.000000 
462 	 C 	 8.697124 	 19.934577 	 18.726319 	 C 	 1  ala 	 1.000000 
463 	 C 	 9.598130 	 19.832042 	 19.147833 	 C 	 1  ala 	 1.000000 
464 	 C 	 10.432971 	 19.335114 	 19.384698 	 C 	 1  ala 	 1.000000 
465 	 C 	 10.706792 	 19.322353 	 18.423003 	 C 	 1  ala 	 1.000000 
466 	 C 	 11.069792 	 19.804877 	 19.220124 	 C 	 1  ala 	 1.000000 
467 	 C 	 10.581620 	 18.943749 	 19.362068 	 C 	 1  ala 	 1.000000 
468 	 C 	 11.119386 	 18.619234 	 18.583930 	 C 	 1  ala 	 1.000000 
469 	 C 	 10.151849 	 18.471482 	 18.788973 	 C 	 1  ala 	 1.000000 
470 	 C 	 9.732254 	 17.638072 	 19.148649 	 C 	 1  ala 	 1.000000 
471 	 C 	 9.393995 	 18.570272 	 19.277425 	 C 	 1  ala 	 1.000000 
472 	 C 	 9.105305 	 18.019478 	 20.060549 	 C 	 1  ala 	 1.000000 
473 	 C 	 8.810890 	 18.559068 	 20.849322 	 C 	 1  ala 	 1.000000 
474 	 C 	 7.939676 	 18.836053 	 20.444025 	 C 	 1  ala 	 1.000000 
475 	 C 	 8.881622 	 18.535282 	 20.294781 	 C 	 1  ala 	 1.000000 
476 	 C 	 8.798297 	 19.283338 	 19.636398 	 C 	 1  ala 	 1.000000 
477 	 C 	 8.037215 	 18.932709 	 20.182120 	 C 	 1  ala 	 1.000000 
478 	 C 	 8.513358 	 18.916167 	 19.302908 	 C 	 1  ala 	 1.000000 
479 	 C 	 9.291121 	 18.295400 	 19.401562 	 C 	 1  ala 	 1.000000 
480 	 C 	 10.131662 	 18.722525 	 19.068314 	 C 	 1  ala 	 1.000000 
481 	 C 	 9.370529 	 18.078563 	 19.145692 	 C 	 1  ala 	 1.000000 
482 	 C 	 10.240912 	 18.549621 	 19.289002 	 C 	 1  ala 	 1.000000 
483 	 C 	 10.923205 	 18.035125 	 18.769609 	 C 	 1  ala 	 1.000000 
484 	 C 	 11.014947 	 17.201086 	 18.225584 	 C 	 1  ala 	 1.000000 
485 	 C 	 11.534833 	 16.535437 	 17.690206 	 C 	 1  ala 	 1.000000 
486 	 C 	 12.246891 	 17.162909 	 18.005252 	 C 	 1  ala 	 1.000000 
487 	 C 	 12.855363 	 17.900361 	 18.298382 	 C 	 1  ala 	 1.000000 
488 	 C 	 12.099228 	 18.554775 	 18.296631 	 C 	 1  ala 	 1.000000 
489 	 C 	 11.188323 	 18.967376 	 18.292976 	 C 	 1  ala 	 1.000000 
490 	 C 	 11.450917 	 19.922052 	 18.152838 	 C 	 1  ala 	 1.000000 
491 	 C 	 11.391493 	 19.008289 	 17.750958 	 C 	 1  ala 	 1.000000 
492 	 C 	 10.419957 	 18.850628 	 17.574150 	 C 	 1  ala 	 1.000000 
493 	 C 	 10.788878 	 18.643026 	 18.480130 	 C 	 1  ala 	 1.000000 
494 	 C 	 10.017217 	 18.048756 	 18.253453 	 C 	 1  ala 	 1.000000 
495 	 C 	 10.824009 	 17.530531 	 17.969676 	 C 	 1  ala 	 1.000000 
496 	 C 	 10.272574 	 18.356571 	 18.086190 	 C 	 1  ala 	 1.000000 
497 	 C 	 10.836126 	 17.886496 	 17.406898 	 C 	 1  ala 	 1.000000 
498 	 C 	 11.661441 	 18.048312 	 16.865907 	 C 	 1  ala 	 1.000000 
499 	 C 	 10.774195 	 18.193042 	 16.427901 	 C 	 1  ala 	 1.000000 
500 	 C 	 11.065647 	 17.605474 	 17.182765 	 C 	 1  ala 	 1.000000 
501 	 C 	 11.535557 	 17.235246 	 16.381444 	 C 	 1  ala 	 1.000000 
502 	 C 	 11.140118 	 18.067700 	 16.769577 	 C 	 1  ala 	 1.000000 
503 	 C 	 11.698421 	 18.591778 	 17.412725 	 C 	 1  ala 	 1.000000 
504 	 C 	 11.680152 	 19.572955 	 17.220477 	 C 	 1  ala 	 1.000000 
505 	 C 	 11.627399 	 19.024428 	 16.386010 	 C 	 1  ala 	 1.000000 
506 	 C 	 11.229633 	 19.902652 	 16.120482 	 C 	 1  ala 	 1.000000 
507 	 C 	 11.602854 	 20.587556 	 15.494692 	 C 	 1  ala 	 1.000000 
508 	 C 	 11.658990 	 20.808363 	 16.468393 	 C 	 1  ala 	 1.000000 
509 	 C 	 12.149041 	 20.810104 	 15.596701 	 C 	 1  ala 	 1.000000 
510 	 C 	 12.403637 	 21.347474 	 16.400700 	 C 	 1  ala 	 1.000000 
511 	 C 	 13.023364 	 21.998802 	 16.838546 	 C 	 1  ala 	 1.000000 
512 	 C 	 12.684116 	 22.931335 	 16.714878 	 C 	 1  ala 	 1.000000 
513 	 C 	 12.995636 	 23.878101 	 16.633700 	 C 	 1  ala 	 1.000000 
514 	 C 	 13.025333 	 24.397100 	 17.487958 	 C 	 1  ala 	 1.000000 
515 	 C 	 12.109571 	 24.021894 	 17.344428 	 C 	 1  ala 	 1.000000 
516 	 C 	 11.925123 	 24.713141 	 18.043111 	 C 	 1  ala 	 1.000000 
517 	 C 	 11.887831 	 25.602061 	 17.586570 	 C 	 1  ala 	 1.000000 
518 	 C 	 12.336557 	 26.200387 	 18.250386 	 C 	 1  ala 	 1.000000 
519 	 C 	 11.914972 	 26.640482 	 17.457553 	 C 	 1  ala 	 1.000000 
520 	 C 	 10.996775 	 26.511621 	 17.082975 	 C 	 1  ala 	 1.000000 
521 	 C 	 11.103792 	 26.082831 	 16.185931 	 C 	 1  ala 	 1.000000 
522 	 C 	 10.760537 	 25.308304 	 15.654627 	 C 	 1  ala 	 1.000000 
523 	 C 	 10.771785 	 26.096018 	 16.270566 	 C 	 1  ala 	 1.000000 
524 	 C 	 11.229878 	 25.558852 	 15.562326 	 C 	 1  ala 	 1.000000 
525 	 C 	 12.190021 	 25.562500 	 15.282839 	 C 	 1  ala 	 1.000000 
526 	 C 	 12.949944 	 24.913808 	 15.324267 	 C 	 1  ala 	 1.000000 
527 	 C 	 13.201871 	 24.171131 	 14.703812 	 C 	 1  ala 	 1.000000 
528 	 C 	 13.924990 	 24.608995 	 14.169608 	 C 	 1  ala 	 1.000000 
529 	 C 	 14.190603 	 24.840853 	 13.233823 	 C 	 1  ala 	 1.000000 
530 	 C 	 13.822070 	 25.594740 	 13.777734 	 C 	 1  ala 	 1.000000 
531 	 C 	 12.942075 	 25.143867 	 13.628320 	 C 	 1  ala 	 1.000000 
532 	 C 	 13.924213 	 25.097434 	 13.445977 	 C 	 1  ala 	 1.000000 
533 	 C 	 14.142634 	 24.249529 	 13.929039 	 C 	 1  ala 	 1.000000 
534 	 C 	 13.523508 	 23.824727 	 14.589513 	 C 	 1  ala 	 1.000000 
535 	 C 	 12.789489 	 23.237216 	 14.248856 	 C 	 1  ala 	 1.000000 
536 	 C 	 13.542132 	 22.579338 	 14.275776 	 C 	 1  ala 	 1.000000 
537 	 C 	 13.235256 	 22.041968 	 15.061308 	 C 	 1  ala 	 1.000000 
538 	 C 	 14.028660 	 22.596191 	 15.312994 	 C 	 1  ala 	 1.000000 
539 	 C 	 13.181002 	 22.831388 	 14.837433 	 C 	 1  ala 	 1.000000 
540 	 C 	 12.884969 	 23.127619 	 15.745514 	 C 	 1  ala 	 1.000000 
541 	 C 	 12.218616 	 22.940964 	 15.023618 	 C 	 1  ala 	 1.000000 
542 	 C 	 11.883199 	 22.014233 	 15.192926 	 C 	 1  ala 	 1.000000 
543 	 C 	 10.884220 	 21.969195 	 15.189460 	 C 	 1  ala 	 1.000000 
544 	 C 	 10.407520 	 22.209994 	 14.344018 	 C 	 1  ala 	 1.000000 
545 	 C 	 9.925371 	 22.998615 	 14.725606 	 C 	 1  ala 	 1.000000 
546 	 C 	 10.549406 	 22.242664 	 14.923392 	 C 	 1  ala 	 1.000000 
547 	 C 	 9.663619 	 22.390209 	 15.363406 	 C 	 1  ala 	 1.000000 
548 	 C 	 10.428279 	 22.318314 	 16.003817 	 C 	 1  ala 	 1.000000 
549 	 C 	 11.306706 	 21.861788 	 16.145062 	 C 	 1  ala 	 1.000000 
550 	 C 	 11.909362 	 21.190719 	 15.713238 	 C 	 1  ala 	 1.000000 
551 	 C 	 11.248521 	 21.900519 	 15.957109 	 C 	 1  ala 	 1.000000 
552 	 C 	 11.052793 	 22.563127 	 16.680048 	 C 	 1  ala 	 1.000000 
553 	 C 	 11.035126 	 23.084724 	 15.827039 	 C 	 1  ala 	 1.000000 
554 	 C 	 10.955538 	 23.258733 	 16.808562 	 C 	 1  ala 	 1.000000 
555 	 C 	 10.745955 	 23.425993 	 15.845183 	 C 	 1  ala 	 1.000000 
556 	 C 	 9.748739 	 23.437553 	 15.918861 	 C 	 1  ala 	 1.000000 
557 	 C 	 9.042994 	 23.368341 	 16.623938 	 C 	 1  ala 	 1.000000 
558 	 C 	 9.075065 	 24.337515 	 16.868219 	 C 	 1  ala 	 1.000000 
559 	 C 	 9.436393 	 23.414956 	 16.732842 	 C 	 1  ala 	 1.000000 
560 	 C 	 9.201537 	 22.667580 	 17.354350 	 C 	 1  ala 	 1.000000 
561 	 C 	 9.451886 	 23.064690 	 18.237316 	 C 	 1  ala 	 1.000000 
562 	 C 	 8.573450 	 23.540213 	 18.284526 	 C 	 1  ala 	 1.000000 
563 	 C 	 8.118183 	 24.396691 	 18.527786 	 C 	 1  ala 	 1.000000 
564 	 C 	 9.008979 	 24.454472 	 18.077072 	 C 	 1  ala 	 1.000000 
565 	 C 	 9.374374 	 25.321422 	 17.738126 	 C 	 1  ala 	 1.000000 
566 	 C 	 9.839438 	 25.875783 	 18.428342 	 C 	 1  ala 	 1.000000 
567 	 C 	 9.077921 	 25.230681 	 18.491065 	 C 	 1  ala 	 1.000000 
568 	 C 	 8.672370 	 24.359470 	 18.767689 	 C 	 1  ala 	 1.000000 
569 	 C 	 8.847977 	 24.149293 	 17.805926 	 C 	 1  ala 	 1.000000 
570 	 C 	 9.762070 	 24.522201 	 17.646638 	 C 	 1  ala 	 1.000000 
571 	 C 	 10.667765 	 24.808333 	 17.333836 	 C 	 1  ala 	 1.000000 
572 	 C 	 10.998523 	 24.252558 	 16.571135 	 C 	 1  ala 	 1.000000 
573 	 C 	 11.895089 	 23.995894 	 16.932097 	 C 	 1  ala 	 1.000000 
574 	 C 	 12.807788 	 23.590610 	 16.984308 	 C 	 1  ala 	 1.000000 
575 	 C 	 13.109083 	 23.644032 	 17.936342 	 C 	 1  ala 	 1.000000 
576 	 C 	 12.380566 	 23.708311 	 17.254336 	 C 	 1  ala 	 1.000000 
577 	 C 	 11.911168 	 22.954391 	 16.794694 	 C 	 1  ala 	 1.000000 
578 	 C 	 12.374171 	 23.511165 	 17.484354 	 C 	 1  ala 	 1.000000 
579 	 C 	 12.998102 	 23.805160 	 16.760284 	 C 	 1  ala 	 1.000000 
580 	 C 	 13.015081 	 22.970012 	 17.310048 	 C 	 1  ala 	 1.000000 
581 	 C 	 13.040625 	 22.552968 	 18.218576 	 C 	 1  ala 	 1.000000 
582 	 C 	 12.611099 	 21.730775 	 18.592079 	 C 	 1  ala 	 1.000000 
583 	 C 	 13.443110 	 21.401939 	 18.145285 	 C 	 1  ala 	 1.000000 
584 	 C 	 14.050763 	 21.150604 	 17.391901 	 C 	 1  ala 	 1.000000 
585 	 C 	 13.855582 	 21.759647 	 16.623155 	 C 	 1  ala 	 1.000000 
586 	 C 	 13.046358 	 22.141542 	 17.069601 	 C 	 1  ala 	 1.000000 
587 	 C 	 13.869247 	 21.576302 	 17.011659 	 C 	 1  ala 	 1.000000 
588 	 C 	 13.715496 	 20.597242 	 16.878234 	 C 	 1  ala 	 1.000000 
589 	 C 	 12.949552 	 20.417131 	 17.495396 	 C 	 1  ala 	 1.000000 
590 	 C 	 12.480297 	 20.016520 	 18.282360 	 C 	 1  ala 	 1.000000 
591 	 C 	 11.643450 	 20.192157 	 17.763863 	 C 	 1  ala 	 1.000000 
592 	 C 	 12.187979 	 19.541994 	 18.293747 	 C 	 1  ala 	 1.000000 
593 	 C 	 12.951560 	 19.067195 	 18.731366 	 C 	 1  ala 	 1.000000 
594 	 C 	 12.255339 	 18.860982 	 19.418937 	 C 	 1  ala 	 1.000000 
595 	 C 	 13.101753 	 19.351716 	 19.625729 	 C 	 1  ala 	 1.000000 
596 	 C 	 12.619573 	 20.194123 	 19.866260 	 C 	 1  ala 	 1.000000 
597 	 C 	 12.446720 	 20.735525 	 20.689063 	 C 	 1  ala 	 1.000000 
598 	 C 	 12.840802 	 20.133076 	 21.383149 	 C 	 1  ala 	 1.000000 
599 	 C 	 13.318469 	 20.497014 	 20.583534 	 C 	 1  ala 	 1.000000 
600 	 C 	 13.644386 	 20.592987 	 19.643020 	 C 	 1  ala 	 1.000000 
601 	 C 	 13.627555 	 20.201643 	 18.722929 	 C 	 1  ala 	 1.000000 
602 	 C 	 14.615284 	 20.124943 	 18.858975 	 C 	 1  ala 	 1.000000 
603 	 C 	 14.661446 	 21.009895 	 18.395586 	 C 	 1  ala 	 1.000000 
604 	 C 	 14.576900 	 20.883796 	 19.383994 	 C 	 1  ala 	 1.000000 
605 	 C 	 13.816595 	 20.248203 	 19.518005 	 C 	 1  ala 	 1.000000 
606 	 C 	 14.707328 	 20.565299 	 19.843650 	 C 	 1  ala 	 1.000000 
607 	 C 	 13.744333 	 20.351408 	 19.679664 	 C 	 1  ala 	 1.000000 
608 	 C 	 14.463459 	 20.405565 	 20.372430 	 C 	 1  ala 	 1.000000 
609 	 C 	 14.063919 	 20.779060 	 19.535251 	 C 	 1  ala 	 1.000000 
610 	 C 	 13.872896 	 20.909237 	 20.508166 	 C 	 1  ala 	 1.000000 
611 	 C 	 13.465571 	 20.720615 	 21.401759 	 C 	 1  ala 	 1.000000 
612 	 C 	 13.765919 	 20.078952 	 20.696026 	 C 	 1  ala 	 1.000000 
613 	 C 	 14.060773 	 20.568541 	 21.516613 	 C 	 1  ala 	 1.000000 
614 	 C 	 14.316523 	 19.610473 	 21.645840 	 C 	 1  ala 	 1.000000 
615 	 C 	 13.592167 	 20.011503 	 21.085051 	 C 	 1  ala 	 1.000000 
616 	 C 	 13.609031 	 20.044716 	 22.084357 	 C 	 1  ala 	 1.000000 
617 	 C 	 12.988028 	 20.820591 	 22.195588 	 C 	 1  ala 	 1.000000 
618 	 C 	 13.011784 	 21.476641 	 21.441245 	 C 	 1  ala 	 1.000000 
619 	 C 	 13.058185 	 20.799238 	 20.707098 	 C 	 1  ala 	 1.000000 
620 	 C 	 12.257794 	 20.490048 	 20.193506 	 C 	 1  ala 	 1.000000 
621 	 C 	 11.305534 	 20.492977 	 19.888232 	 C 	 1  ala 	 1.000000 
622 	 C 	 11.546727 	 21.151235 	 20.601339 	 C 	 1  ala 	 1.000000 
623 	 C 	 11.299414 	 21.994549 	 20.124206 	 C 	 1  ala 	 1.000000 
624 	 C 	 10.397723 	 21.563967 	 20.163606 	 C 	 1  ala 	 1.000000 
625 	 C 	 10.808682 	 20.665383 	 20.009793 	 C 	 1  ala 	 1.000000 
626 	 C 	 10.468730 	 19.790065 	 20.353670 	 C 	 1  ala 	 1.000000 
627 	 C 	 10.122223 	 20.556587 	 19.812951 	 C 	 1  ala 	 1.000000 
628 	 C 	 10.362817 	 21.430677 	 19.390954 	 C 	 1  ala 	 1.000000 
629 	 C 	 9.500117 	 21.268009 	 19.869795 	 C 	 1  ala 	 1.000000 
630 	 C 	 9.735211 	 21.665465 	 20.756790 	 C 	 1  ala 	 1.000000 
631 	 C 	 9.114467 	 20.954228 	 20.426911 	 C 	 1  ala 	 1.000000 
632 	 C 	 8.672709 	 20.106329 	 20.133796 	 C 	 1  ala 	 1.000000 
633 	 C 	 7.953548 	 19.489765 	 20.454194 	 C 	 1  ala 	 1.000000 
634 	 C 	 7.992458 	 19.945798 	 21.343306 	 C 	 1  ala 	 1.000000 
635 	 C 	 8.241997 	 19.173383 	 20.759264 	 C 	 1  ala 	 1.000000 
636 	 C 	 8.116034 	 18.183306 	 20.821561 	 C 	 1  ala 	 1.000000 
637 	 C 	 8.721535 	 17.495388 	 21.221731 	 C 	 1  ala 	 1.000000 
638 	 C 	 9.422290 	 17.889961 	 20.627378 	 C 	 1  ala 	 1.000000 
639 	 C 	 9.175015 	 18.492469 	 21.386219 	 C 	 1  ala 	 1.000000 
640 	 C 	 9.187290 	 17.826103 	 20.640695 	 C 	 1  ala 	 1.000000 
641 	 C 	 9.779810 	 17.579782 	 21.407666 	 C 	 1  ala 	 1.000000 
642 	 C 	 9.366770 	 17.612167 	 22.317803 	 C 	 1  ala 	 1.000000 
643 	 C 	 10.283198 	 17.236398 	 22.455486 	 C 	 1  ala 	 1.000000 
644 	 C 	 9.970938 	 18.184824 	 22.510091 	 C 	 1  ala 	 1.000000 
645 	 C 	 10.099186 	 19.061460 	 22.046342 	 C 	 1  ala 	 1.000000 
646 	 C 	 10.422804 	 18.138928 	 22.256597 	 C 	 1  ala 	 1.000000 
647 	 C 	 10.872914 	 17.386846 	 21.775168 	 C 	 1  ala 	 1.000000 
648 	 C 	 10.801272 	 16.393076 	 21.860543 	 C 	 1  ala 	 1.000000 
649 	 C 	 11.337341 	 17.059714 	 21.342640 	 C 	 1  ala 	 1.000000 
650 	 C 	 11.804946 	 17.834907 	 21.767400 	 C 	 1  ala 	 1.000000 
651 	 C 	 12.400332 	 18.351050 	 21.151679 	 C 	 1  ala 	 1.000000 
652 	 C 	 12.021339 	 19.126357 	 20.646444 	 C 	 1  ala 	 1.000000 
653 	 C 	 11.705717 	 19.773273 	 21.340621 	 C 	 1  ala 	 1.000000 
654 	 C 	 11.643600 	 20.768376 	 21.263739 	 C 	 1  ala 	 1.000000 
655 	 C 	 11.977338 	 19.882735 	 21.586629 	 C 	 1  ala 	 1.000000 
656 	 C 	 12.534469 	 19.161489 	 21.175035 	 C 	 1  ala 	 1.000000 
657 	 C 	 13.231878 	 18.891305 	 20.511242 	 C 	 1  ala 	 1.000000 
658 	 C 	 13.370298 	 18.249236 	 21.265289 	 C 	 1  ala 	 1.000000 
659 	 C 	 14.282292 	 17.967981 	 20.966688 	 C 	 1  ala 	 1.000000 
660 	 C 	 14.313397 	 18.939007 	 20.729747 	 C 	 1  ala 	 1.000000 
661 	 C 	 14.486014 	 19.766603 	 21.263872 	 C 	 1  ala 	 1.000000 
662 	 C 	 14.633306 	 19.915116 	 22.241752 	 C 	 1  ala 	 1.000000 
663 	 C 	 14.137143 	 19.935388 	 23.109745 	 C 	 1  ala 	 1.000000 
664 	 C 	 13.206260 	 19.602341 	 22.959622 	 C 	 1  ala 	 1.000000 
665 	 C 	 12.543271 	 19.021863 	 22.486873 	 C 	 1  ala 	 1.000000 
666 	 C 	 11.924773 	 18.349600 	 22.080028 	 C 	 1  ala 	 1.000000 
667 	 C 	 12.724131 	 18.936983 	 22.206550 	 C 	 1  ala 	 1.000000 
668 	 C 	 13.158418 	 19.787070 	 22.504455 	 C 	 1  ala 	 1.000000 
669 	 C 	 12.607194 	 19.079202 	 22.946129 	 C 	 1  ala 	 1.000000 
670 	 C 	 13.551932 	 19.128339 	 23.270251 	 C 	 1  ala 	 1.000000 
671 	 C 	 13.545449 	 18.146546 	 23.460092 	 C 	 1  ala 	 1.000000 
672 	 C 	 12.847704 	 18.137658 	 24.176383 	 C 	 1  ala 	 1.000000 
673 	 C 	 12.054440 	 18.447814 	 24.700344 	 C 	 1  ala 	 1.000000 
674 	 C 	 11.802573 	 17.697687 	 25.311795 	 C 	 1  ala 	 1.000000 
675 	 C 	 11.360812 	 18.489468 	 24.889978 	 C 	 1  ala 	 1.000000 
676 	 C 	 10.726025 	 19.209108 	 24.608617 	 C 	 1  ala 	 1.000000 
677 	 C 	 10.831349 	 18.217783 	 24.687243 	 C 	 1  ala 	 1.000000 
678 	 C 	 10.215334 	 18.174304 	 23.900709 	 C 	 1  ala 	 1.000000 
679 	 C 	 10.136254 	 19.163722 	 24.022357 	 C 	 1  ala 	 1.000000 
680 	 C 	 10.224250 	 18.551478 	 23.236600 	 C 	 1  ala 	 1.000000 
681 	 C 	 10.513362 	 17.608945 	 23.069127 	 C 	 1  ala 	 1.000000 
682 	 C 	 11.459791 	 17.418537 	 22.808329 	 C 	 1  ala 	 1.000000 
683 	 C 	 11.623671 	 16.786927 	 22.050561 	 C 	 1  ala 	 1.000000 
684 	 C 	 12.290588 	 16.278188 	 22.594992 	 C 	 1  ala 	 1.000000 
685 	 C 	 13.256572 	 16.234408 	 22.849862 	 C 	 1  ala 	 1.000000 
686 	 C 	 12.805154 	 16.338016 	 23.736139 	 C 	 1  ala 	 1.000000 
687 	 C 	 12.693342 	 16.935963 	 22.942440 	 C 	 1  ala 	 1.000000 
688 	 C 	 12.993191 	 17.665970 	 22.328291 	 C 	 1  ala 	 1.000000 
689 	 C 	 12.089124 	 18.092867 	 22.307768 	 C 	 1  ala 	 1.000000 
690 	 C 	 11.872690 	 17.173611 	 22.636590 	 C 	 1  ala 	 1.000000 
691 	 C 	 12.835559 	 17.164791 	 22.366765 	 C 	 1  ala 	 1.000000 
692 	 C 	 12.950344 	 17.633378 	 21.490836 	 C 	 1  ala 	 1.000000 
693 	 C 	 12.867609 	 17.676157 	 20.495183 	 C 	 1  ala 	 1.000000 
694 	 C 	 13.621236 	 17.646137 	 19.838567 	 C 	 1  ala 	 1.000000 
695 	 C 	 14.229575 	 18.339045 	 20.225611 	 C 	 1  ala 	 1.000000 
696 	 C 	 14.369285 	 17.877045 	 21.101417 	 C 	 1  ala 	 1.000000 
697 	 C 	 15.115262 	 17.683026 	 21.738501 	 C 	 1  ala 	 1.000000 
698 	 C 	 14.874537 	 17.254408 	 22.609327 	 C 	 1  ala 	 1.000000 
699 	 C 	 14.761678 	 16.295110 	 22.350461 	 C 	 1  ala 	 1.000000 
700 	 C 	 15.432456 	 16.231252 	 21.611557 	 C 	 1  ala 	 1.000000 
701 	 C 	 14.544663 	 15.772557 	 21.573835 	 C 	 1  ala 	 1.000000 
702 	 C 	 13.963902 	 16.258334 	 22.227086 	 C 	 1  ala 	 1.000000 
703 	 C 	 14.367776 	 17.171091 	 22.165752 	 C 	 1  ala 	 1.000000 
704 	 C 	 15.312985 	 17.291029 	 22.469388 	 C 	 1  ala 	 1.000000 
705 	 C 	 14.657946 	 17.748264 	 23.070936 	 C 	 1  ala 	 1.000000 
706 	 C 	 15.628284 	 17.975664 	 22.988876 	 C 	 1  ala 	 1.000000 
707 	 C 	 14.871555 	 17.642616 	 22.426345 	 C 	 1  ala 	 1.000000 
708 	 C 	 14.801010 	 17.811546 	 23.409445 	 C 	 1  ala 	 1.000000 
709 	 C 	 14.341188 	 16.947294 	 23.205404 	 C 	 1  ala 	 1.000000 
710 	 C 	 13.663833 	 16.330457 	 23.606281 	 C 	 1  ala 	 1.000000 
711 	 C 	 14.654618 	 16.245696 	 23.500636 	 C 	 1  ala 	 1.000000 
712 	 C 	 14.599825 	 15.756594 	 24.371140 	 C 	 1  ala 	 1.000000 
713 	 C 	 15.378047 	 16.186820 	 23.913674 	 C 	 1  ala 	 1.000000 
714 	 C 	 14.724371 	 15.617827 	 24.412627 	 C 	 1  ala 	 1.000000 
715 	 C 	 14.981718 	 14.700186 	 24.109795 	 C 	 1  ala 	 1.000000 
716 	 C 	 14.397566 	 14.945823 	 24.883376 	 C 	 1  ala 	 1.000000 
717 	 C 	 14.022217 	 14.688921 	 23.992807 	 C 	 1  ala 	 1.000000 
718 	 C 	 13.893580 	 14.192845 	 24.851504 	 C 	 1  ala 	 1.000000 
719 	 C 	 13.713554 	 14.502221 	 25.785247 	 C 	 1  ala 	 1.000000 
720 	 C 	 14.557584 	 14.538023 	 26.320347 	 C 	 1  ala 	 1.000000 
721 	 C 	 13.992917 	 14.069190 	 26.999573 	 C 	 1  ala 	 1.000000 
722 	 C 	 14.689330 	 14.708893 	 26.674319 	 C 	 1  ala 	 1.000000 
723 	 C 	 15.192468 	 13.923767 	 26.313168 	 C 	 1  ala 	 1.000000 
724 	 C 	 15.294138 	 14.720388 	 25.717300 	 C 	 1  ala 	 1.000000 
725 	 C 	 16.262525 	 14.904325 	 25.548791 	 C 	 1  ala 	 1.000000 
726 	 C 	 16.451750 	 15.772299 	 25.089645 	 C 	 1  ala 	 1.000000 
727 	 C 	 16.738886 	 14.917805 	 24.656755 	 C 	 1  ala 	 1.000000 
728 	 C 	 16.964320 	 14.026276 	 25.049636 	 C 	 1  ala 	 1.000000 
729 	 C 	 17.756806 	 14.364562 	 25.557109 	 C 	 1  ala 	 1.000000 
730 	 C 	 17.162519 	 15.094566 	 25.894627 	 C 	 1  ala 	 1.000000 
731 	 C 	 17.053444 	 15.961615 	 26.380763 	 C 	 1  ala 	 1.000000 
732 	 C 	 16.999523 	 15.331809 	 27.155641 	 C 	 1  ala 	 1.000000 
733 	 C 	 17.873827 	 14.894573 	 27.366394 	 C 	 1  ala 	 1.000000 
734 	 C 	 17.788062 	 14.448605 	 28.257325 	 C 	 1  ala 	 1.000000 
735 	 C 	 17.029369 	 14.167340 	 28.844926 	 C 	 1  ala 	 1.000000 
736 	 C 	 17.490914 	 13.462277 	 28.306538 	 C 	 1  ala 	 1.000000 
737 	 C 	 18.099354 	 12.841367 	 28.800776 	 C 	 1  ala 	 1.000000 
738 	 C 	 17.640558 	 12.494180 	 27.982872 	 C 	 1  ala 	 1.000000 
739 	 C 	 17.541775 	 12.142727 	 27.051892 	 C 	 1  ala 	 1.000000 
740 	 C 	 18.102844 	 11.317733 	 26.984172 	 C 	 1  ala 	 1.000000 
741 	 C 	 17.395675 	 10.736576 	 26.581470 	 C 	 1  ala 	 1.000000 
742 	 C 	 17.042103 	 10.726648 	 27.516824 	 C 	 1  ala 	 1.000000 
743 	 C 	 16.298692 	 11.388535 	 27.612982 	 C 	 1  ala 	 1.000000 
744 	 C 	 15.399674 	 11.039332 	 27.348737 	 C 	 1  ala 	 1.000000 
745 	 C 	 15.550808 	 10.070103 	 27.154438 	 C 	 1  ala 	 1.000000 
746 	 C 	 15.035153 	 10.843701 	 27.522740 	 C 	 1  ala 	 1.000000 
747 	 C 	 15.331450 	 11.424253 	 28.281137 	 C 	 1  ala 	 1.000000 
748 	 C 	 14.884997 	 10.556750 	 28.061779 	 C 	 1  ala 	 1.000000 
749 	 C 	 14.704318 	 9.574181 	 28.018036 	 C 	 1  ala 	 1.000000 
750 	 C 	 14.928456 	 9.939236 	 27.114434 	 C 	 1  ala 	 1.000000 
751 	 C 	 14.454312 	 10.641805 	 26.583789 	 C 	 1  ala 	 1.000000 
752 	 C 	 14.314234 	 10.225985 	 27.482383 	 C 	 1  ala 	 1.000000 
753 	 C 	 14.735998 	 10.368014 	 28.377896 	 C 	 1  ala 	 1.000000 
754 	 C 	 14.515404 	 10.350975 	 27.402679 	 C 	 1  ala 	 1.000000 
755 	 C 	 15.018157 	 10.773508 	 26.648554 	 C 	 1  ala 	 1.000000 
756 	 C 	 15.771674 	 10.256209 	 26.242827 	 C 	 1  ala 	 1.000000 
757 	 C 	 16.087046 	 10.544978 	 27.146792 	 C 	 1  ala 	 1.000000 
758 	 C 	 15.478321 	 10.296863 	 26.393205 	 C 	 1  ala 	 1.000000 
759 	 C 	 16.249219 	 10.457852 	 25.776927 	 C 	 1  ala 	 1.000000 
760 	 C 	 15.591978 	 11.199418 	 25.642337 	 C 	 1  ala 	 1.000000 
761 	 C 	 15.996836 	 11.603905 	 24.822288 	 C 	 1  ala 	 1.000000 
762 	 C 	 15.545958 	 12.214438 	 25.473410 	 C 	 1  ala 	 1.000000 
763 	 C 	 15.062972 	 12.783722 	 26.138722 	 C 	 1  ala 	 1.000000 
764 	 C 	 15.120744 	 13.454036 	 25.398896 	 C 	 1  ala 	 1.000000 
765 	 C 	 15.975801 	 13.953129 	 25.258243 	 C 	 1  ala 	 1.000000 
766 	 C 	 16.664321 	 13.302178 	 25.577935 	 C 	 1  ala 	 1.000000 
767 	 C 	 16.645401 	 12.618143 	 26.307139 	 C 	 1  ala 	 1.000000 
768 	 C 	 16.197149 	 13.143113 	 25.583622 	 C 	 1  ala 	 1.000000 
769 	 C 	 15.284831 	 12.869893 	 25.888624 	 C 	 1  ala 	 1.000000 
770 	 C 	 16.151182 	 12.949450 	 26.381683 	 C 	 1  ala 	 1.000000 
771 	 C 	 16.252920 	 13.689322 	 25.716673 	 C 	 1  ala 	 1.000000 
772 	 C 	 15.276155 	 13.603864 	 25.913209 	 C 	 1  ala 	 1.000000 
773 	 C 	 15.288201 	 12.847761 	 25.258867 	 C 	 1  ala 	 1.000000 
774 	 C 	 14.928986 	 12.404042 	 24.437844 	 C 	 1  ala 	 1.000000 
775 	 C 	 14.100017 	 12.094446 	 24.903634 	 C 	 1  ala 	 1.000000 
776 	 C 	 14.826083 	 11.900461 	 25.563329 	 C 	 1  ala 	 1.000000 
777 	 C 	 14.728714 	 12.856949 	 25.288283 	 C 	 1  ala 	 1.000000 
778 	 C 	 14.170151 	 12.369228 	 25.959204 	 C 	 1  ala 	 1.000000 
779 	 C 	 13.861515 	 12.522655 	 25.020479 	 C 	 1  ala 	 1.000000 
780 	 C 	 12.904704 	 12.399627 	 24.757084 	 C 	 1  ala 	 1.000000 
781 	 C 	 12.798960 	 12.507463 	 23.768555 	 C 	 1  ala 	 1.000000 
782 	 C 	 12.026884 	 13.125295 	 23.619616 	 C 	 1  ala 	 1.000000 
783 	 C 	 11.091495 	 12.867328 	 23.377745 	 C 	 1  ala 	 1.000000 
784 	 C 	 12.043475 	 12.561171 	 23.376194 	 C 	 1  ala 	 1.000000 
785 	 C 	 12.496620 	 11.787514 	 22.933345 	 C 	 1  ala 	 1.000000 
786 	 C 	 12.907288 	 11.902674 	 23.837828 	 C 	 1  ala 	 1.000000 
787 	 C 	 13.485410 	 11.866127 	 24.652960 	 C 	 1  ala 	 1.000000 
788 	 C 	 14.272467 	 12.291901 	 24.206577 	 C 	 1  ala 	 1.000000 
789 	 C 	 13.820538 	 13.175590 	 24.328455 	 C 	 1  ala 	 1.000000 
790 	 C 	 14.551422 	 13.765704 	 23.985565 	 C 	 1  ala 	 1.000000 
791 	 C 	 14.844624 	 13.152274 	 23.252261 	 C 	 1  ala 	 1.000000 
792 	 C 	 14.126045 	 13.064826 	 22.562336 	 C 	 1  ala 	 1.000000 
793 	 C 	 14.115068 	 14.007387 	 22.896189 	 C 	 1  ala 	 1.000000 
794 	 C 	 13.274945 	 13.483989 	 22.753897 	 C 	 1  ala 	 1.000000 
795 	 C 	 12.494176 	 13.792547 	 22.210581 	 C 	 1  ala 	 1.000000 
796 	 C 	 12.073475 	 13.067897 	 21.664785 	 C 	 1  ala 	 1.000000 
797 	 C 	 11.221004 	 13.514521 	 21.936484 	 C 	 1  ala 	 1.000000 
798 	 C 	 10.920381 	 14.437238 	 21.695196 	 C 	 1  ala 	 1.000000 
799 	 C 	 11.870380 	 14.310718 	 21.980670 	 C 	 1  ala 	 1.000000 
800 	 C 	 11.015359 	 13.916988 	 21.643157 	 C 	 1  ala 	 1.000000 
801 	 C 	 11.057302 	 14.297005 	 22.567185 	 C 	 1  ala 	 1.000000 
802 	 C 	 11.842907 	 13.679558 	 22.527380 	 C 	 1  ala 	 1.000000 
803 	 C 	 12.499652 	 13.256793 	 23.151844 	 C 	 1  ala 	 1.000000 
804 	 C 	 11.886939 	 13.510231 	 22.403278 	 C 	 1  ala 	 1.000000 
805 	 C 	 12.843242 	 13.352296 	 22.157228 	 C 	 1  ala 	 1.000000 
806 	 C 	 12.473738 	 14.277097 	 22.066618 	 C 	 1  ala 	 1.000000 
807 	 C 	 11.983546 	 15.041967 	 21.648663 	 C 	 1  ala 	 1.000000 
808 	 C 	 11.703784 	 15.959430 	 21.931496 	 C 	 1  ala 	 1.000000 
809 	 C 	 11.808663 	 16.941269 	 22.089591 	 C 	 1  ala 	 1.000000 
810 	 C 	 11.765503 	 16.091693 	 21.563893 	 C 	 1  ala 	 1.000000 
811 	 C 	 12.631213 	 16.532817 	 21.327340 	 C 	 1  ala 	 1.000000 
812 	 C 	 12.380308 	 16.532729 	 20.359329 	 C 	 1  ala 	 1.000000 
813 	 C 	 12.138576 	 16.508384 	 19.389291 	 C 	 1  ala 	 1.000000 
814 	 C 	 13.133529 	 16.515478 	 19.289201 	 C 	 1  ala 	 1.000000 
815 	 C 	 12.138739 	 16.418860 	 19.256653 	 C 	 1  ala 	 1.000000 
816 	 C 	 11.583088 	 16.031814 	 18.520822 	 C 	 1  ala 	 1.000000 
817 	 C 	 12.251164 	 15.826431 	 17.805635 	 C 	 1  ala 	 1.000000 
818 	 C 	 11.543056 	 16.508417 	 17.622662 	 C 	 1  ala 	 1.000000 
819 	 C 	 11.473895 	 17.195287 	 18.346144 	 C 	 1  ala 	 1.000000 
820 	 C 	 12.090761 	 16.657851 	 17.771132 	 C 	 1  ala 	 1.000000 
821 	 C 	 12.983338 	 16.220185 	 17.879552 	 C 	 1  ala 	 1.000000 
822 	 C 	 13.879091 	 15.789561 	 17.769143 	 C 	 1  ala 	 1.000000 
823 	 C 	 13.478684 	 15.080524 	 17.188678 	 C 	 1  ala 	 1.000000 
824 	 C 	 13.700100 	 15.139296 	 18.162084 	 C 	 1  ala 	 1.000000 
825 	 C 	 14.050588 	 15.064310 	 19.095645 	 C 	 1  ala 	 1.000000 
826 	 C 	 14.699876 	 15.817774 	 18.992118 	 C 	 1  ala 	 1.000000 
827 	 C 	 15.480463 	 15.460428 	 19.504942 	 C 	 1  ala 	 1.000000 
828 	 C 	 14.545167 	 15.814010 	 19.519134 	 C 	 1  ala 	 1.000000 
829 	 C 	 15.275441 	 15.138733 	 19.415691 	 C 	 1  ala 	 1.000000 
830 	 C 	 14.417836 	 14.626874 	 19.465828 	 C 	 1  ala 	 1.000000 
831 	 C 	 13.622651 	 14.063536 	 19.690177 	 C 	 1  ala 	 1.000000 
832 	 C 	 13.021910 	 13.358736 	 19.312862 	 C 	 1  ala 	 1.000000 
833 	 C 	 13.453458 	 13.720942 	 18.486682 	 C 	 1  ala 	 1.000000 
834 	 C 	 14.300107 	 13.936351 	 18.000077 	 C 	 1  ala 	 1.000000 
835 	 C 	 13.478804 	 14.350424 	 18.392512 	 C 	 1  ala 	 1.000000 
836 	 C 	 13.193347 	 15.294709 	 18.228681 	 C 	 1  ala 	 1.000000 
837 	 C 	 13.444853 	 14.825027 	 17.382428 	 C 	 1  ala 	 1.000000 
838 	 C 	 13.659006 	 14.289939 	 18.199630 	 C 	 1  ala 	 1.000000 
839 	 C 	 13.156999 	 15.003932 	 18.687690 	 C 	 1  ala 	 1.000000 
840 	 C 	 14.145356 	 15.119378 	 18.588583 	 C 	 1  ala 	 1.000000 
841 	 C 	 13.483734 	 15.868570 	 18.619690 	 C 	 1  ala 	 1.000000 
842 	 C 	 14.059960 	 16.628028 	 18.317719 	 C 	 1  ala 	 1.000000 
843 	 C 	 13.433447 	 16.444674 	 19.075256 	 C 	 1  ala 	 1.000000 
844 	 C 	 13.841587 	 17.271926 	 18.689153 	 C 	 1  ala 	 1.000000 
845 	 C 	 14.198477 	 16.713156 	 17.940550 	 C 	 1  ala 	 1.000000 
846 	 C 	 13.433753 	 17.290361 	 17.654140 	 C 	 1  ala 	 1.000000 
847 	 C 	 12.962391 	 17.656811 	 16.851936 	 C 	 1  ala 	 1.000000 
848 	 C 	 12.111284 	 17.833055 	 16.357410 	 C 	 1  ala 	 1.000000 
849 	 C 	 11.935913 	 17.725414 	 17.336010 	 C 	 1  ala 	 1.000000 
850 	 C 	 11.346908 	 16.917762 	 17.308240 	 C 	 1  ala 	 1.000000 
851 	 C 	 12.337123 	 16.934523 	 17.446780 	 C 	 1  ala 	 1.000000 
852 	 C 	 12.980638 	 16.635246 	 18.151281 	 C 	 1  ala 	 1.000000 
853 	 C 	 13.154894 	 17.026220 	 19.055037 	 C 	 1  ala 	 1.000000 
854 	 C 	 13.908205 	 16.540919 	 19.498890 	 C 	 1  ala 	 1.000000 
855 	 C 	 14.731839 	 17.093844 	 19.372791 	 C 	 1  ala 	 1.000000 
856 	 C 	 15.667589 	 17.259899 	 19.061668 	 C 	 1  ala 	 1.000000 
857 	 C 	 16.490722 	 17.572996 	 18.587935 	 C 	 1  ala 	 1.000000 
858 	 C 	 17.153139 	 18.118917 	 19.100939 	 C 	 1  ala 	 1.000000 
859 	 C 	 17.269355 	 17.201984 	 19.482682 	 C 	 1  ala 	 1.000000 
860 	 C 	 17.397145 	 16.218757 	 19.352552 	 C 	 1  ala 	 1.000000 
861 	 C 	 17.012274 	 16.410427 	 18.449703 	 C 	 1  ala 	 1.000000 
862 	 C 	 16.854183 	 16.849060 	 17.565052 	 C 	 1  ala 	 1.000000 
863 	 C 	 16.684250 	 16.521476 	 18.494466 	 C 	 1  ala 	 1.000000 
864 	 C 	 16.304825 	 15.888029 	 17.820092 	 C 	 1  ala 	 1.000000 
865 	 C 	 15.597166 	 16.584967 	 17.703913 	 C 	 1  ala 	 1.000000 
866 	 C 	 16.092785 	 16.521437 	 16.837700 	 C 	 1  ala 	 1.000000 
867 	 C 	 15.307087 	 17.112691 	 17.019628 	 C 	 1  ala 	 1.000000 
868 	 C 	 16.031383 	 16.432287 	 17.131189 	 C 	 1  ala 	 1.000000 
869 	 C 	 15.453576 	 16.201324 	 17.914001 	 C 	 1  ala 	 1.000000 
870 	 C 	 15.384313 	 16.123561 	 18.908564 	 C 	 1  ala 	 1.000000 
871 	 C 	 15.509855 	 15.386937 	 19.573113 	 C 	 1  ala 	 1.000000 
872 	 C 	 16.177347 	 14.704747 	 19.871560 	 C 	 1  ala 	 1.000000 
873 	 C 	 15.391767 	 14.187854 	 20.211684 	 C 	 1  ala 	 1.000000 
874 	 C 	 15.928227 	 15.004391 	 19.998431 	 C 	 1  ala 	 1.000000 
875 	 C 	 15.912530 	 15.870625 	 20.497823 	 C 	 1  ala 	 1.000000 
876 	 C 	 16.525219 	 15.217223 	 20.942432 	 C 	 1  ala 	 1.000000 
877 	 C 	 16.010974 	 15.687408 	 20.225161 	 C 	 1  ala 	 1.000000 
878 	 C 	 16.446071 	 14.789856 	 20.296507 	 C 	 1  ala 	 1.000000 
879 	 C 	 16.465749 	 13.964009 	 20.860058 	 C 	 1  ala 	 1.000000 
880 	 C 	 17.024300 	 14.190274 	 20.062045 	 C 	 1  ala 	 1.000000 
881 	 C 	 16.152722 	 13.791209 	 20.346826 	 C 	 1  ala 	 1.000000 
882 	 C 	 15.540753 	 13.002244 	 20.401849 	 C 	 1  ala 	 1.000000 
883 	 C 	 16.057649 	 12.146850 	 20.368380 	 C 	 1  ala 	 1.000000 
884 	 C 	 15.638963 	 13.012873 	 20.095055 	 C 	 1  ala 	 1.000000 
885 	 C 	 14.984085 	 13.456970 	 20.706539 	 C 	 1  ala 	 1.000000 
886 	 C 	 15.259781 	 12.616898 	 21.173734 	 C 	 1  ala 	 1.000000 
887 	 C 	 14.782459 	 12.164957 	 20.420134 	 C 	 1  ala 	 1.000000 
888 	 C 	 13.825011 	 12.052463 	 20.685911 	 C 	 1  ala 	 1.000000 
889 	 C 	 13.846669 	 12.746601 	 19.966395 	 C 	 1  ala 	 1.000000 
890 	 C 	 14.623803 	 13.316894 	 20.232529 	 C 	 1  ala 	 1.000000 
891 	 C 	 14.901523 	 12.955585 	 21.122657 	 C 	 1  ala 	 1.000000 
892 	 C 	 14.942001 	 13.866686 	 21.532847 	 C 	 1  ala 	 1.000000 
893 	 C 	 14.072786 	 13.499638 	 21.864117 	 C 	 1  ala 	 1.000000 
894 	 C 	 14.431588 	 14.433047 	 21.867062 	 C 	 1  ala 	 1.000000 
895 	 C 	 14.218905 	 15.070874 	 22.607293 	 C 	 1  ala 	 1.000000 
896 	 C 	 15.164652 	 15.118260 	 22.285862 	 C 	 1  ala 	 1.000000 
897 	 C 	 15.952741 	 15.731461 	 22.232000 	 C 	 1  ala 	 1.000000 
898 	 C 	 16.094436 	 16.339029 	 23.013526 	 C 	 1  ala 	 1.000000 
899 	 C 	 15.467155 	 16.628922 	 23.736354 	 C 	 1  ala 	 1.000000 
900 	 C 	 15.238899 	 15.737954 	 23.343830 	 C 	 1  ala 	 1.000000 
901 	 C 	 15.908971 	 15.808299 	 24.082786 	 C 	 1  ala 	 1.000000 
902 	 C 	 15.981257 	 16.793641 	 24.237304 	 C 	 1  ala 	 1.000000 
903 	 C 	 15.820512 	 15.810969 	 24.329586 	 C 	 1  ala 	 1.000000 
904 	 C 	 16.149373 	 16.708786 	 24.622460 	 C 	 1  ala 	 1.000000 
905 	 C 	 16.463446 	 17.258778 	 23.848595 	 C 	 1  ala 	 1.000000 
906 	 C 	 16.954803 	 16.486901 	 24.252048 	 C 	 1  ala 	 1.000000 
907 	 C 	 16.114697 	 16.979198 	 24.024307 	 C 	 1  ala 	 1.000000 
908 	 C 	 15.793619 	 17.925707 	 23.992226 	 C 	 1  ala 	 1.000000 
909 	 C 	 16.328689 	 18.636421 	 24.448937 	 C 	 1  ala 	 1.000000 
910 	 C 	 16.714755 	 18.552789 	 23.530265 	 C 	 1  ala 	 1.000000 
911 	 C 	 15.830346 	 18.498437 	 23.066728 	 C 	 1  ala 	 1.000000 
912 	 C 	 16.403020 	 17.917479 	 23.645116 	 C 	 1  ala 	 1.000000 
913 	 C 	 16.770886 	 18.247933 	 24.514297 	 C 	 1  ala 	 1.000000 
914 	 C 	 15.846638 	 17.870155 	 24.459067 	 C 	 1  ala 	 1.000000 
915 	 C 	 15.137914 	 17.564777 	 23.823100 	 C 	 1  ala 	 1.000000 
916 	 C 	 15.639601 	 17.435866 	 24.678490 	 C 	 1  ala 	 1.000000 
917 	 C 	 14.856001 	 18.039845 	 24.532952 	 C 	 1  ala 	 1.000000 
918 	 C 	 15.833029 	 17.993394 	 24.324965 	 C 	 1  ala 	 1.000000 
919 	 C 	 15.942867 	 18.839506 	 23.803400 	 C 	 1  ala 	 1.000000 
920 	 C 	 16.935348 	 18.753271 	 23.716532 	 C 	 1  ala 	 1.000000 
921 	 C 	 17.553869 	 18.800960 	 24.500852 	 C 	 1  ala 	 1.000000 
922 	 C 	 17.427309 	 17.825251 	 24.679665 	 C 	 1  ala 	 1.000000 
923 	 C 	 17.654530 	 18.357161 	 25.495411 	 C 	 1  ala 	 1.000000 
924 	 C 	 18.207708 	 17.707811 	 26.017273 	 C 	 1  ala 	 1.000000 
925 	 C 	 18.170504 	 16.789045 	 25.624227 	 C 	 1  ala 	 1.000000 
926 	 C 	 17.719102 	 16.810261 	 26.516296 	 C 	 1  ala 	 1.000000 
927 	 C 	 18.640976 	 16.437084 	 26.411956 	 C 	 1  ala 	 1.000000 
928 	 C 	 18.769146 	 16.189444 	 25.451619 	 C 	 1  ala 	 1.000000 
929 	 C 	 18.134797 	 16.033551 	 24.694454 	 C 	 1  ala 	 1.000000 
930 	 C 	 18.476279 	 16.225668 	 23.774410 	 C 	 1  ala 	 1.000000 
931 	 C 	 19.190140 	 16.726277 	 23.284724 	 C 	 1  ala 	 1.000000 
932 	 C 	 18.552983 	 15.958221 	 23.348911 	 C 	 1  ala 	 1.000000 
933 	 C 	 17.597690 	 15.899784 	 23.638741 	 C 	 1  ala 	 1.000000 
934 	 C 	 17.514189 	 14.934085 	 23.884611 	 C 	 1  ala 	 1.000000 
935 	 C 	 16.663680 	 14.551076 	 24.245083 	 C 	 1  ala 	 1.000000 
936 	 C 	 15.922668 	 15.033396 	 23.777892 	 C 	 1  ala 	 1.000000 
937 	 C 	 16.113450 	 14.356869 	 24.489168 	 C 	 1  ala 	 1.000000 
938 	 C 	 17.104821 	 14.355460 	 24.358087 	 C 	 1  ala 	 1.000000 
939 	 C 	 16.935340 	 14.191429 	 25.329874 	 C 	 1  ala 	 1.000000 
940 	 C 	 16.645318 	 14.917838 	 24.706804 	 C 	 1  ala 	 1.000000 
941 	 C 	 17.199469 	 15.743098 	 24.815721 	 C 	 1  ala 	 1.000000 
942 	 C 	 17.851963 	 15.467579 	 24.109788 	 C 	 1  ala 	 1.000000 
943 	 C 	 17.092984 	 16.076952 	 23.880405 	 C 	 1  ala 	 1.000000 
944 	 C 	 16.539341 	 15.513356 	 23.267348 	 C 	 1  ala 	 1.000000 
945 	 C 	 16.934685 	 16.272357 	 23.784669 	 C 	 1  ala 	 1.000000 
946 	 C 	 17.660447 	 16.495362 	 23.133871 	 C 	 1  ala 	 1.000000 
947 	 C 	 18.037557 	 15.877780 	 23.824074 	 C 	 1  ala 	 1.000000 
948 	 C 	 18.587272 	 15.955257 	 22.992323 	 C 	 1  ala 	 1.000000 
949 	 C 	 18.075044 	 15.096410 	 22.994496 	 C 	 1  ala 	 1.000000 
950 	 C 	 18.752799 	 14.391465 	 22.785448 	 C 	 1  ala 	 1.000000 
951 	 C 	 18.645564 	 13.740386 	 22.034052 	 C 	 1  ala 	 1.000000 
952 	 C 	 19.611522 	 13.853455 	 22.266731 	 C 	 1  ala 	 1.000000 
953 	 C 	 18.886515 	 14.462059 	 21.944294 	 C 	 1  ala 	 1.000000 
954 	 C 	 18.664722 	 13.781375 	 22.642490 	 C 	 1  ala 	 1.000000 
955 	 C 	 17.773542 	 14.231141 	 22.583248 	 C 	 1  ala 	 1.000000 
956 	 C 	 17.962365 	 14.777989 	 23.398909 	 C 	 1  ala 	 1.000000 
957 	 C 	 18.452880 	 15.317428 	 24.083307 	 C 	 1  ala 	 1.000000 
958 	 C 	 17.764722 	 15.079500 	 23.397866 	 C 	 1  ala 	 1.000000 
959 	 C 	 18.759824 	 15.007026 	 23.465089 	 C 	 1  ala 	 1.000000 
960 	 C 	 19.622197 	 15.010616 	 23.971351 	 C 	 1  ala 	 1.000000 
961 	 C 	 19.727983 	 15.466023 	 24.855326 	 C 	 1  ala 	 1.000000 
962 	 C 	 18.863607 	 15.081361 	 24.531462 	 C 	 1  ala 	 1.000000 
963 	 C 	 19.828322 	 15.340089 	 24.580296 	 C 	 1  ala 	 1.000000 
964 	 C 	 19.390894 	 14.947310 	 25.389235 	 C 	 1  ala 	 1.000000 
965 	 C 	 19.815485 	 14.098137 	 25.703285 	 C 	 1  ala 	 1.000000 
966 	 C 	 20.372599 	 14.712802 	 26.261685 	 C 	 1  ala 	 1.000000 
967 	 C 	 20.491197 	 15.532937 	 25.701941 	 C 	 1  ala 	 1.000000 
968 	 C 	 19.830567 	 16.113086 	 26.178381 	 C 	 1  ala 	 1.000000 
969 	 C 	 20.008448 	 16.542414 	 27.063839 	 C 	 1  ala 	 1.000000 
970 	 C 	 20.921759 	 16.744667 	 26.710345 	 C 	 1  ala 	 1.000000 
971 	 C 	 20.938493 	 15.867784 	 27.190758 	 C 	 1  ala 	 1.000000 
972 	 C 	 21.901806 	 15.881875 	 26.922747 	 C 	 1  ala 	 1.000000 
973 	 C 	 21.753884 	 14.912521 	 26.726602 	 C 	 1  ala 	 1.000000 
974 	 C 	 21.466527 	 15.776443 	 26.313002 	 C 	 1  ala 	 1.000000 
975 	 C 	 21.992874 	 16.200009 	 27.050261 	 C 	 1  ala 	 1.000000 
976 	 C 	 22.859123 	 15.764188 	 26.805979 	 C 	 1  ala 	 1.000000 
977 	 C 	 22.879707 	 16.543308 	 26.179442 	 C 	 1  ala 	 1.000000 
978 	 C 	 23.342815 	 15.818819 	 25.668907 	 C 	 1  ala 	 1.000000 
979 	 C 	 23.656727 	 16.745811 	 25.874198 	 C 	 1  ala 	 1.000000 
980 	 C 	 23.360356 	 16.430839 	 26.775839 	 C 	 1  ala 	 1.000000 
981 	 C 	 22.749068 	 17.137398 	 27.132352 	 C 	 1  ala 	 1.000000 
982 	 C 	 23.252769 	 17.905963 	 26.737899 	 C 	 1  ala 	 1.000000 
983 	 C 	 23.529521 	 18.809017 	 27.066384 	 C 	 1  ala 	 1.000000 
984 	 C 	 24.217556 	 19.503912 	 26.857270 	 C 	 1  ala 	 1.000000 
985 	 C 	 24.254655 	 20.378006 	 26.372932 	 C 	 1  ala 	 1.000000 
986 	 C 	 24.454895 	 19.440477 	 26.088424 	 C 	 1  ala 	 1.000000 
987 	 C 	 24.018337 	 19.536800 	 26.982929 	 C 	 1  ala 	 1.000000 
988 	 C 	 23.786287 	 20.280988 	 27.609297 	 C 	 1  ala 	 1.000000 
989 	 C 	 23.318822 	 19.405227 	 27.488796 	 C 	 1  ala 	 1.000000 
990 	 C 	 23.967052 	 18.808718 	 27.015536 	 C 	 1  ala 	 1.000000 
991 	 C 	 23.550650 	 18.689064 	 27.916809 	 C 	 1  ala 	 1.000000 
992 	 C 	 23.452726 	 19.322770 	 27.149458 	 C 	 1  ala 	 1.000000 
993 	 C 	 22.499936 	 19.197524 	 26.872861 	 C 	 1  ala 	 1.000000 
994 	 C 	 21.509286 	 19.294056 	 26.776461 	 C 	 1  ala 	 1.000000 
995 	 C 	 21.907589 	 20.094558 	 27.224289 	 C 	 1  ala 	 1.000000 
996 	 C 	 22.616843 	 20.581731 	 27.733820 	 C 	 1  ala 	 1.000000 
997 	 C 	 23.615439 	 20.588041 	 27.786422 	 C 	 1  ala 	 1.000000 
998 	 C 	 22.932821 	 21.316806 	 27.732248 	 C 	 1  ala 	 1.000000 
999 	 C 	 21.989286 	 21.171860 	 27.434367 	 C 	 1  ala 	 1.000000 
1000 	 C 	 22.725200 	 20.876884 	 26.824924 	 C 	 1  ala 	 1.000000 
1001 	 C 	 21.862550 	 20.465881 	 27.119733 	 C 	 1  ala 	 1.000000 
1002 	 C 	 21.751356 	 20.766106 	 26.172368 	 C 	 1  ala 	 1.000000 
1003 	 C 	 22.287433 	 20.187007 	 25.558148 	 C 	 1  ala 	 1.000000 
1004 	 C 	 22.742107 	 20.206681 	 24.667707 	 C 	 1  ala 	 1.000000 
1005 	 C 	 23.545614 	 19.773097 	 25.075606 	 C 	 1  ala 	 1.000000 
1006 	 C 	 24.261124 	 19.119482 	 24.828965 	 C 	 1  ala 	 1.000000 
1007 	 C 	 24.263302 	 19.439661 	 25.776319 	 C 	 1  ala 	 1.000000 
1008 	 C 	 23.567397 	 18.899311 	 25.303310 	 C 	 1  ala 	 1.000000 
1009 	 C 	 24.194748 	 19.648108 	 25.089458 	 C 	 1  ala 	 1.000000 
1010 	 C 	 24.706247 	 20.132539 	 24.379743 	 C 	 1  ala 	 1.000000 
1011 	 C 	 24.556903 	 19.942228 	 23.409445 	 C 	 1  ala 	 1.000000 
1012 	 C 	 23.754468 	 19.460125 	 23.057772 	 C 	 1  ala 	 1.000000 
1013 	 C 	 24.316330 	 20.028087 	 22.456331 	 C 	 1  ala 	 1.000000 
1014 	 C 	 25.268828 	 20.265507 	 22.265600 	 C 	 1  ala 	 1.000000 
1015 	 C 	 26.089561 	 20.255755 	 22.836828 	 C 	 1  ala 	 1.000000 
1016 	 C 	 26.866958 	 20.647138 	 22.344411 	 C 	 1  ala 	 1.000000 
1017 	 C 	 26.934770 	 19.654737 	 22.241736 	 C 	 1  ala 	 1.000000 
1018 	 C 	 26.770902 	 20.537354 	 21.801129 	 C 	 1  ala 	 1.000000 
1019 	 C 	 26.518971 	 19.579324 	 21.664346 	 C 	 1  ala 	 1.000000 
1020 	 C 	 27.035517 	 20.408052 	 21.448963 	 C 	 1  ala 	 1.000000 
1021 	 C 	 27.714286 	 20.946485 	 21.948325 	 C 	 1  ala 	 1.000000 
1022 	 C 	 27.087932 	 21.397630 	 21.312598 	 C 	 1  ala 	 1.000000 
1023 	 C 	 27.923315 	 21.206068 	 21.827806 	 C 	 1  ala 	 1.000000 
1024 	 C 	 27.098513 	 21.440096 	 21.313090 	 C 	 1  ala 	 1.000000 
1025 	 C 	 26.354401 	 20.968926 	 21.786688 	 C 	 1  ala 	 1.000000 
1026 	 C 	 27.292836 	 20.742573 	 22.047657 	 C 	 1  ala 	 1.000000 
1027 	 C 	 26.902234 	 21.661675 	 21.995875 	 C 	 1  ala 	 1.000000 
1028 	 C 	 26.981824 	 21.704494 	 20.999967 	 C 	 1  ala 	 1.000000 
1029 	 C 	 26.251602 	 22.157988 	 21.510964 	 C 	 1  ala 	 1.000000 
1030 	 C 	 26.734452 	 21.304829 	 21.313543 	 C 	 1  ala 	 1.000000 
1031 	 C 	 25.780177 	 21.486264 	 21.075972 	 C 	 1  ala 	 1.000000 
1032 	 C 	 25.499385 	 20.589021 	 21.416724 	 C 	 1  ala 	 1.000000 
1033 	 C 	 24.829908 	 21.331058 	 21.382357 	 C 	 1  ala 	 1.000000 
1034 	 C 	 24.210411 	 21.280336 	 20.598999 	 C 	 1  ala 	 1.000000 
1035 	 C 	 24.184990 	 21.101836 	 21.582610 	 C 	 1  ala 	 1.000000 
1036 	 C 	 25.181950 	 21.024071 	 21.587519 	 C 	 1  ala 	 1.000000 
1037 	 C 	 25.192284 	 20.604789 	 22.495316 	 C 	 1  ala 	 1.000000 
1038 	 C 	 26.140533 	 20.735744 	 22.784582 	 C 	 1  ala 	 1.000000 
1039 	 C 	 26.083472 	 21.687867 	 23.084924 	 C 	 1  ala 	 1.000000 
1040 	 C 	 25.982945 	 21.218426 	 22.207702 	 C 	 1  ala 	 1.000000 
1041 	 C 	 25.126628 	 21.487350 	 22.648612 	 C 	 1  ala 	 1.000000 
1042 	 C 	 24.255029 	 21.435337 	 22.161160 	 C 	 1  ala 	 1.000000 
1043 	 C 	 23.677378 	 21.083977 	 21.424366 	 C 	 1  ala 	 1.000000 
1044 	 C 	 24.272358 	 20.326400 	 21.155898 	 C 	 1  ala 	 1.000000 
1045 	 C 	 24.803961 	 21.162284 	 21.019168 	 C 	 1  ala 	 1.000000 
1046 	 C 	 24.338149 	 21.801684 	 20.407459 	 C 	 1  ala 	 1.000000 
1047 	 C 	 24.708455 	 21.996997 	 19.499315 	 C 	 1  ala 	 1.000000 
1048 	 C 	 25.616541 	 21.765257 	 19.848136 	 C 	 1  ala 	 1.000000 
1049 	 C 	 24.728261 	 21.563585 	 20.260795 	 C 	 1  ala 	 1.000000 
1050 	 C 	 25.216255 	 22.434458 	 20.319474 	 C 	 1  ala 	 1.000000 
1051 	 C 	 24.994906 	 22.760365 	 21.238598 	 C 	 1  ala 	 1.000000 
1052 	 C 	 25.277512 	 21.878147 	 20.862002 	 C 	 1  ala 	 1.000000 
1053 	 C 	 25.759528 	 21.223994 	 21.444878 	 C 	 1  ala 	 1.000000 
1054 	 C 	 25.208897 	 20.849420 	 22.190867 	 C 	 1  ala 	 1.000000 
1055 	 C 	 24.300175 	 20.441775 	 22.280590 	 C 	 1  ala 	 1.000000 
1056 	 C 	 24.307718 	 20.186303 	 21.313803 	 C 	 1  ala 	 1.000000 
1057 	 C 	 24.987832 	 19.909201 	 21.992522 	 C 	 1  ala 	 1.000000 
1058 	 C 	 24.876229 	 20.644375 	 22.661150 	 C 	 1  ala 	 1.000000 
1059 	 C 	 23.966041 	 20.790865 	 22.273724 	 C 	 1  ala 	 1.000000 
1060 	 C 	 24.052603 	 19.890739 	 22.700667 	 C 	 1  ala 	 1.000000 
1061 	 C 	 24.944172 	 20.312646 	 22.536050 	 C 	 1  ala 	 1.000000 
1062 	 C 	 24.965343 	 20.657420 	 23.474497 	 C 	 1  ala 	 1.000000 
1063 	 C 	 25.188132 	 21.629641 	 23.402736 	 C 	 1  ala 	 1.000000 
1064 	 C 	 25.036272 	 22.071879 	 24.286684 	 C 	 1  ala 	 1.000000 
1065 	 C 	 25.522063 	 22.148280 	 23.415954 	 C 	 1  ala 	 1.000000 
1066 	 C 	 26.056245 	 22.124180 	 24.260980 	 C 	 1  ala 	 1.000000 
1067 	 C 	 25.264735 	 21.759752 	 24.751596 	 C 	 1  ala 	 1.000000 
1068 	 C 	 25.199899 	 21.823809 	 23.755758 	 C 	 1  ala 	 1.000000 
1069 	 C 	 24.531025 	 22.034938 	 23.042995 	 C 	 1  ala 	 1.000000 
1070 	 C 	 24.384684 	 21.137582 	 23.459330 	 C 	 1  ala 	 1.000000 
1071 	 C 	 24.703993 	 21.951558 	 22.974063 	 C 	 1  ala 	 1.000000 
1072 	 C 	 24.816842 	 22.808712 	 23.476609 	 C 	 1  ala 	 1.000000 
1073 	 C 	 24.583622 	 23.405989 	 22.709231 	 C 	 1  ala 	 1.000000 
1074 	 C 	 24.881224 	 24.022086 	 21.979945 	 C 	 1  ala 	 1.000000 
1075 	 C 	 24.644432 	 24.608414 	 22.754638 	 C 	 1  ala 	 1.000000 
1076 	 C 	 24.524368 	 23.926229 	 23.475893 	 C 	 1  ala 	 1.000000 
1077 	 C 	 25.112522 	 24.065174 	 24.272617 	 C 	 1  ala 	 1.000000 
1078 	 C 	 25.927895 	 24.194794 	 24.836856 	 C 	 1  ala 	 1.000000 
1079 	 C 	 25.984675 	 23.729406 	 23.953572 	 C 	 1  ala 	 1.000000 
1080 	 C 	 26.210342 	 24.439321 	 24.620727 	 C 	 1  ala 	 1.000000 
1081 	 C 	 26.177304 	 24.501065 	 25.618272 	 C 	 1  ala 	 1.000000 
1082 	 C 	 26.885627 	 24.658479 	 24.930159 	 C 	 1  ala 	 1.000000 
1083 	 C 	 25.888048 	 24.727504 	 24.938660 	 C 	 1  ala 	 1.000000 
1084 	 C 	 25.614615 	 24.494417 	 25.871882 	 C 	 1  ala 	 1.000000 
1085 	 C 	 26.491527 	 24.448787 	 26.350364 	 C 	 1  ala 	 1.000000 
1086 	 C 	 25.915372 	 23.887476 	 26.944482 	 C 	 1  ala 	 1.000000 
1087 	 C 	 26.101460 	 23.511256 	 27.852132 	 C 	 1  ala 	 1.000000 
1088 	 C 	 26.964081 	 23.284357 	 27.400023 	 C 	 1  ala 	 1.000000 
1089 	 C 	 25.989421 	 23.446956 	 27.553646 	 C 	 1  ala 	 1.000000 
1090 	 C 	 25.154380 	 23.993836 	 27.493397 	 C 	 1  ala 	 1.000000 
1091 	 C 	 25.855288 	 23.496027 	 26.982599 	 C 	 1  ala 	 1.000000 
1092 	 C 	 26.103716 	 23.204733 	 27.906413 	 C 	 1  ala 	 1.000000 
1093 	 C 	 26.090690 	 22.426165 	 27.278988 	 C 	 1  ala 	 1.000000 
1094 	 C 	 26.277851 	 23.063983 	 26.531888 	 C 	 1  ala 	 1.000000 
1095 	 C 	 26.307016 	 22.065686 	 26.481375 	 C 	 1  ala 	 1.000000 
1096 	 C 	 26.945461 	 22.081330 	 25.711866 	 C 	 1  ala 	 1.000000 
1097 	 C 	 27.477332 	 22.612245 	 25.052137 	 C 	 1  ala 	 1.000000 
1098 	 C 	 28.343727 	 22.596251 	 24.553034 	 C 	 1  ala 	 1.000000 
1099 	 C 	 27.827129 	 21.953026 	 23.987889 	 C 	 1  ala 	 1.000000 
1100 	 C 	 27.765987 	 21.836820 	 24.979231 	 C 	 1  ala 	 1.000000 
1101 	 C 	 27.874148 	 22.018307 	 24.001804 	 C 	 1  ala 	 1.000000 
1102 	 C 	 28.348000 	 21.970238 	 23.122512 	 C 	 1  ala 	 1.000000 
1103 	 C 	 27.800581 	 21.425180 	 23.757528 	 C 	 1  ala 	 1.000000 
1104 	 C 	 28.364429 	 22.024480 	 24.325784 	 C 	 1  ala 	 1.000000 
1105 	 C 	 28.328866 	 21.070884 	 24.624765 	 C 	 1  ala 	 1.000000 
1106 	 C 	 27.353386 	 21.152343 	 24.420304 	 C 	 1  ala 	 1.000000 
1107 	 C 	 27.656632 	 21.772519 	 25.143784 	 C 	 1  ala 	 1.000000 
1108 	 C 	 26.946893 	 21.979100 	 25.817279 	 C 	 1  ala 	 1.000000 
1109 	 C 	 26.098001 	 21.738333 	 26.287825 	 C 	 1  ala 	 1.000000 
1110 	 C 	 25.536745 	 21.598181 	 25.472136 	 C 	 1  ala 	 1.000000 
1111 	 C 	 25.705351 	 20.783807 	 26.027444 	 C 	 1  ala 	 1.000000 
1112 	 C 	 25.610159 	 21.687989 	 26.443850 	 C 	 1  ala 	 1.000000 
1113 	 C 	 24.986615 	 21.454917 	 25.697612 	 C 	 1  ala 	 1.000000 
1114 	 C 	 24.228683 	 22.037492 	 25.991117 	 C 	 1  ala 	 1.000000 
1115 	 C 	 24.998133 	 21.479788 	 25.679809 	 C 	 1  ala 	 1.000000 
1116 	 C 	 25.549623 	 21.957176 	 26.363885 	 C 	 1  ala 	 1.000000 
1117 	 C 	 24.561305 	 21.805894 	 26.345402 	 C 	 1  ala 	 1.000000 
1118 	 C 	 25.490187 	 21.948908 	 26.687053 	 C 	 1  ala 	 1.000000 
1119 	 C 	 26.205866 	 21.786235 	 26.007832 	 C 	 1  ala 	 1.000000 
1120 	 C 	 26.035595 	 21.139876 	 26.751625 	 C 	 1  ala 	 1.000000 
1121 	 C 	 25.085213 	 21.008407 	 26.469685 	 C 	 1  ala 	 1.000000 
1122 	 C 	 24.795361 	 20.054147 	 26.396378 	 C 	 1  ala 	 1.000000 
1123 	 C 	 24.730714 	 19.360233 	 27.113528 	 C 	 1  ala 	 1.000000 
1124 	 C 	 25.669484 	 19.683933 	 26.995506 	 C 	 1  ala 	 1.000000 
1125 	 C 	 25.394074 	 19.622533 	 27.954870 	 C 	 1  ala 	 1.000000 
1126 	 C 	 25.765221 	 18.725384 	 28.194398 	 C 	 1  ala 	 1.000000 
1127 	 C 	 26.310580 	 19.167861 	 28.906296 	 C 	 1  ala 	 1.000000 
1128 	 C 	 25.815642 	 19.321053 	 29.761614 	 C 	 1  ala 	 1.000000 
1129 	 C 	 25.312294 	 18.461517 	 29.673077 	 C 	 1  ala 	 1.000000 
1130 	 C 	 25.454885 	 17.772929 	 30.384072 	 C 	 1  ala 	 1.000000 
1131 	 C 	 24.717414 	 18.325478 	 30.772435 	 C 	 1  ala 	 1.000000 
1132 	 C 	 25.297430 	 17.672672 	 31.259698 	 C 	 1  ala 	 1.000000 
1133 	 C 	 26.261894 	 17.905090 	 31.134035 	 C 	 1  ala 	 1.000000 
1134 	 C 	 26.309794 	 18.879875 	 31.351977 	 C 	 1  ala 	 1.000000 
1135 	 C 	 27.054833 	 18.509805 	 31.906922 	 C 	 1  ala 	 1.000000 
1136 	 C 	 27.510351 	 18.492394 	 31.016866 	 C 	 1  ala 	 1.000000 
1137 	 C 	 28.088159 	 19.108836 	 31.551784 	 C 	 1  ala 	 1.000000 
1138 	 C 	 27.613256 	 18.540189 	 32.223429 	 C 	 1  ala 	 1.000000 
1139 	 C 	 27.629250 	 17.542311 	 32.286543 	 C 	 1  ala 	 1.000000 
1140 	 C 	 27.852356 	 18.190470 	 31.558454 	 C 	 1  ala 	 1.000000 
1141 	 C 	 27.797535 	 17.231489 	 31.836575 	 C 	 1  ala 	 1.000000 
1142 	 C 	 27.866939 	 16.438798 	 32.442235 	 C 	 1  ala 	 1.000000 
1143 	 C 	 27.129218 	 16.718424 	 31.827762 	 C 	 1  ala 	 1.000000 
1144 	 C 	 27.048659 	 16.922489 	 32.803399 	 C 	 1  ala 	 1.000000 
1145 	 C 	 27.517603 	 16.040291 	 32.846044 	 C 	 1  ala 	 1.000000 
1146 	 C 	 28.067298 	 15.214997 	 32.716719 	 C 	 1  ala 	 1.000000 
1147 	 C 	 28.740903 	 14.880652 	 33.375862 	 C 	 1  ala 	 1.000000 
1148 	 C 	 29.251218 	 15.666760 	 33.027132 	 C 	 1  ala 	 1.000000 
1149 	 C 	 29.386067 	 15.148430 	 33.871614 	 C 	 1  ala 	 1.000000 
1150 	 C 	 28.887614 	 14.639514 	 34.573431 	 C 	 1  ala 	 1.000000 
1151 	 C 	 27.963372 	 14.275409 	 34.688348 	 C 	 1  ala 	 1.000000 
1152 	 C 	 27.882556 	 13.329193 	 35.001625 	 C 	 1  ala 	 1.000000 
1153 	 C 	 27.287108 	 14.085727 	 34.731260 	 C 	 1  ala 	 1.000000 
1154 	 C 	 27.681774 	 13.215458 	 35.025998 	 C 	 1  ala 	 1.000000 
1155 	 C 	 27.327074 	 12.456282 	 35.571744 	 C 	 1  ala 	 1.000000 
1156 	 C 	 28.021969 	 12.542802 	 36.285631 	 C 	 1  ala 	 1.000000 
1157 	 C 	 27.082103 	 12.400181 	 35.975292 	 C 	 1  ala 	 1.000000 
1158 	 C 	 27.353710 	 11.438251 	 36.005620 	 C 	 1  ala 	 1.000000 
1159 	 C 	 27.726136 	 10.970605 	 35.203992 	 C 	 1  ala 	 1.000000 
1160 	 C 	 27.019377 	 10.276386 	 35.067790 	 C 	 1  ala 	 1.000000 
1161 	 C 	 26.471754 	 9.460301 	 34.883087 	 C 	 1  ala 	 1.000000 
1162 	 C 	 25.970919 	 8.632107 	 35.134598 	 C 	 1  ala 	 1.000000 
1163 	 C 	 26.803892 	 8.092694 	 35.257847 	 C 	 1  ala 	 1.000000 
1164 	 C 	 26.948169 	 7.795116 	 34.314114 	 C 	 1  ala 	 1.000000 
1165 	 C 	 26.745791 	 6.894570 	 34.698902 	 C 	 1  ala 	 1.000000 
1166 	 C 	 26.704088 	 6.683875 	 33.722240 	 C 	 1  ala 	 1.000000 
1167 	 C 	 26.058762 	 7.391346 	 34.010404 	 C 	 1  ala 	 1.000000 
1168 	 C 	 26.184081 	 7.889221 	 34.868550 	 C 	 1  ala 	 1.000000 
1169 	 C 	 25.494743 	 7.181909 	 34.711951 	 C 	 1  ala 	 1.000000 
1170 	 C 	 25.294925 	 8.088735 	 35.083085 	 C 	 1  ala 	 1.000000 
1171 	 C 	 25.143736 	 8.735683 	 35.830481 	 C 	 1  ala 	 1.000000 
1172 	 C 	 24.184808 	 9.019276 	 35.836172 	 C 	 1  ala 	 1.000000 
1173 	 C 	 23.268261 	 8.853498 	 35.472223 	 C 	 1  ala 	 1.000000 
1174 	 C 	 24.210603 	 8.992488 	 35.167800 	 C 	 1  ala 	 1.000000 
1175 	 C 	 24.308017 	 9.378095 	 34.250294 	 C 	 1  ala 	 1.000000 
1176 	 C 	 24.748409 	 9.972498 	 34.923154 	 C 	 1  ala 	 1.000000 
1177 	 C 	 24.135987 	 10.659144 	 34.531420 	 C 	 1  ala 	 1.000000 
1178 	 C 	 24.078176 	 11.657287 	 34.512205 	 C 	 1  ala 	 1.000000 
1179 	 C 	 24.605892 	 10.894938 	 34.137586 	 C 	 1  ala 	 1.000000 
1180 	 C 	 24.703100 	 10.715101 	 35.116468 	 C 	 1  ala 	 1.000000 
1181 	 C 	 24.940652 	 11.303790 	 35.889135 	 C 	 1  ala 	 1.000000 
1182 	 C 	 25.195946 	 11.180731 	 36.848135 	 C 	 1  ala 	 1.000000 
1183 	 C 	 24.360650 	 11.725383 	 36.923195 	 C 	 1  ala 	 1.000000 
1184 	 C 	 25.316396 	 12.017007 	 36.884413 	 C 	 1  ala 	 1.000000 
1185 	 C 	 24.829916 	 11.558106 	 37.627882 	 C 	 1  ala 	 1.000000 
1186 	 C 	 24.205225 	 10.951247 	 38.119291 	 C 	 1  ala 	 1.000000 
1187 	 C 	 23.425249 	 11.243198 	 37.565755 	 C 	 1  ala 	 1.000000 
1188 	 C 	 24.123861 	 10.642571 	 37.954584 	 C 	 1  ala 	 1.000000 
1189 	 C 	 24.047322 	 10.257126 	 37.035033 	 C 	 1  ala 	 1.000000 
1190 	 C 	 23.972214 	 9.331980 	 36.662926 	 C 	 1  ala 	 1.000000 
1191 	 C 	 24.803985 	 9.880887 	 36.580110 	 C 	 1  ala 	 1.000000 
1192 	 C 	 25.561067 	 10.480203 	 36.320021 	 C 	 1  ala 	 1.000000 
1193 	 C 	 24.584572 	 10.695601 	 36.327876 	 C 	 1  ala 	 1.000000 
1194 	 C 	 24.690832 	 11.570931 	 36.799581 	 C 	 1  ala 	 1.000000 
1195 	 C 	 23.727393 	 11.366565 	 36.626318 	 C 	 1  ala 	 1.000000 
1196 	 C 	 22.984216 	 11.147692 	 35.994034 	 C 	 1  ala 	 1.000000 
1197 	 C 	 23.973319 	 11.254920 	 36.094914 	 C 	 1  ala 	 1.000000 
1198 	 C 	 24.176611 	 10.617821 	 36.838404 	 C 	 1  ala 	 1.000000 
1199 	 C 	 25.007067 	 11.148089 	 37.009165 	 C 	 1  ala 	 1.000000 
1200 	 C 	 24.183493 	 11.111745 	 36.443123 	 C 	 1  ala 	 1.000000 
1201 	 C 	 23.756200 	 10.424694 	 35.855431 	 C 	 1  ala 	 1.000000 
1202 	 C 	 22.848404 	 10.014759 	 35.944083 	 C 	 1  ala 	 1.000000 
1203 	 C 	 22.130196 	 9.321392 	 35.885597 	 C 	 1  ala 	 1.000000 
1204 	 C 	 21.932545 	 10.301605 	 35.896390 	 C 	 1  ala 	 1.000000 
1205 	 C 	 22.686154 	 10.873847 	 35.572951 	 C 	 1  ala 	 1.000000 
1206 	 C 	 22.562366 	 9.890210 	 35.703849 	 C 	 1  ala 	 1.000000 
1207 	 C 	 23.358924 	 9.877331 	 35.099424 	 C 	 1  ala 	 1.000000 
1208 	 C 	 23.754945 	 9.745842 	 34.190645 	 C 	 1  ala 	 1.000000 
1209 	 C 	 24.021586 	 8.956841 	 33.637130 	 C 	 1  ala 	 1.000000 
1210 	 C 	 23.725888 	 8.250026 	 34.279761 	 C 	 1  ala 	 1.000000 
1211 	 C 	 24.663599 	 7.943784 	 34.443818 	 C 	 1  ala 	 1.000000 
1212 	 C 	 24.191083 	 7.147606 	 34.065890 	 C 	 1  ala 	 1.000000 
1213 	 C 	 25.138961 	 7.114800 	 33.748949 	 C 	 1  ala 	 1.000000 
1214 	 C 	 25.376397 	 6.659628 	 32.890787 	 C 	 1  ala 	 1.000000 
1215 	 C 	 25.774985 	 7.061679 	 32.066480 	 C 	 1  ala 	 1.000000 
1216 	 C 	 26.682242 	 6.742464 	 31.792641 	 C 	 1  ala 	 1.000000 
1217 	 C 	 27.646128 	 6.640318 	 31.546694 	 C 	 1  ala 	 1.000000 
1218 	 C 	 27.868600 	 6.068389 	 32.336253 	 C 	 1  ala 	 1.000000 
1219 	 C 	 28.671642 	 6.335018 	 31.803305 	 C 	 1  ala 	 1.000000 
1220 	 C 	 27.960175 	 5.688138 	 31.528785 	 C 	 1  ala 	 1.000000 
1221 	 C 	 27.322969 	 5.957702 	 32.250799 	 C 	 1  ala 	 1.000000 
1222 	 C 	 27.506813 	 6.525770 	 33.052984 	 C 	 1  ala 	 1.000000 
1223 	 C 	 26.851100 	 7.036131 	 33.609377 	 C 	 1  ala 	 1.000000 
1224 	 C 	 26.886173 	 6.510730 	 34.459508 	 C 	 1  ala 	 1.000000 
1225 	 C 	 27.779942 	 6.858482 	 34.742783 	 C 	 1  ala 	 1.000000 
1226 	 C 	 27.921091 	 6.266394 	 33.949367 	 C 	 1  ala 	 1.000000 
1227 	 C 	 28.877976 	 6.252576 	 33.659229 	 C 	 1  ala 	 1.000000 
1228 	 C 	 28.308867 	 6.218060 	 34.480767 	 C 	 1  ala 	 1.000000 
1229 	 C 	 29.011378 	 6.642655 	 33.909630 	 C 	 1  ala 	 1.000000 
1230 	 C 	 28.650680 	 5.792418 	 33.526232 	 C 	 1  ala 	 1.000000 
1231 	 C 	 27.868578 	 6.053076 	 32.960216 	 C 	 1  ala 	 1.000000 
1232 	 C 	 28.852600 	 5.901698 	 33.053940 	 C 	 1  ala 	 1.000000 
1233 	 C 	 29.215383 	 6.798579 	 33.306907 	 C 	 1  ala 	 1.000000 
1234 	 C 	 29.171865 	 5.822069 	 33.517941 	 C 	 1  ala 	 1.000000 
1235 	 C 	 28.199505 	 5.782478 	 33.287835 	 C 	 1  ala 	 1.000000 
1236 	 C 	 27.386323 	 5.451770 	 33.766758 	 C 	 1  ala 	 1.000000 
1237 	 C 	 28.205733 	 5.989203 	 33.966090 	 C 	 1  ala 	 1.000000 
1238 	 C 	 27.657911 	 5.313376 	 33.472988 	 C 	 1  ala 	 1.000000 
1239 	 C 	 27.640190 	 6.267762 	 33.174941 	 C 	 1  ala 	 1.000000 
1240 	 C 	 27.368476 	 6.300357 	 34.136767 	 C 	 1  ala 	 1.000000 
1241 	 C 	 27.192794 	 5.541165 	 34.763474 	 C 	 1  ala 	 1.000000 
1242 	 C 	 27.712968 	 4.735518 	 34.480009 	 C 	 1  ala 	 1.000000 
1243 	 C 	 28.558475 	 4.814553 	 33.951926 	 C 	 1  ala 	 1.000000 
1244 	 C 	 29.006939 	 3.922965 	 33.889068 	 C 	 1  ala 	 1.000000 
1245 	 C 	 29.413599 	 3.009832 	 33.860513 	 C 	 1  ala 	 1.000000 
1246 	 C 	 29.751200 	 3.932898 	 34.044834 	 C 	 1  ala 	 1.000000 
1247 	 C 	 30.448251 	 4.032867 	 33.334815 	 C 	 1  ala 	 1.000000 
1248 	 C 	 29.529473 	 4.425206 	 33.291013 	 C 	 1  ala 	 1.000000 
1249 	 C 	 29.752246 	 4.874509 	 34.156172 	 C 	 1  ala 	 1.000000 
1250 	 C 	 29.400538 	 5.783265 	 34.380812 	 C 	 1  ala 	 1.000000 
1251 	 C 	 28.640699 	 6.253205 	 33.931590 	 C 	 1  ala 	 1.000000 
1252 	 C 	 29.322378 	 5.618516 	 33.567607 	 C 	 1  ala 	 1.000000 
1253 	 C 	 29.735200 	 5.117482 	 34.328227 	 C 	 1  ala 	 1.000000 
1254 	 C 	 30.049747 	 5.104111 	 35.277375 	 C 	 1  ala 	 1.000000 
1255 	 C 	 30.152626 	 4.462171 	 34.517554 	 C 	 1  ala 	 1.000000 
1256 	 C 	 29.312166 	 3.998770 	 34.236684 	 C 	 1  ala 	 1.000000 
1257 	 C 	 28.841080 	 3.177475 	 34.558480 	 C 	 1  ala 	 1.000000 
1258 	 C 	 28.151703 	 3.537895 	 33.930103 	 C 	 1  ala 	 1.000000 
1259 	 C 	 27.321278 	 2.990782 	 33.824928 	 C 	 1  ala 	 1.000000 
1260 	 C 	 26.622788 	 3.448964 	 33.275219 	 C 	 1  ala 	 1.000000 
1261 	 C 	 26.942538 	 4.395163 	 33.225548 	 C 	 1  ala 	 1.000000 
1262 	 C 	 26.207971 	 5.058351 	 33.082041 	 C 	 1  ala 	 1.000000 
1263 	 C 	 26.877748 	 5.298149 	 32.379263 	 C 	 1  ala 	 1.000000 
1264 	 C 	 25.920727 	 5.039534 	 32.247999 	 C 	 1  ala 	 1.000000 
1265 	 C 	 25.558556 	 4.442026 	 32.963412 	 C 	 1  ala 	 1.000000 
1266 	 C 	 25.089604 	 4.053979 	 32.169999 	 C 	 1  ala 	 1.000000 
1267 	 C 	 26.028190 	 3.708946 	 32.173006 	 C 	 1  ala 	 1.000000 
1268 	 C 	 26.800784 	 3.081814 	 32.272022 	 C 	 1  ala 	 1.000000 
1269 	 C 	 26.594012 	 3.850560 	 31.666816 	 C 	 1  ala 	 1.000000 
1270 	 C 	 26.725515 	 4.342463 	 32.527478 	 C 	 1  ala 	 1.000000 
1271 	 C 	 27.610746 	 4.055450 	 32.161432 	 C 	 1  ala 	 1.000000 
1272 	 C 	 27.477267 	 4.925594 	 31.687055 	 C 	 1  ala 	 1.000000 
1273 	 C 	 26.510376 	 4.943176 	 31.941639 	 C 	 1  ala 	 1.000000 
1274 	 C 	 25.713043 	 5.015657 	 31.342467 	 C 	 1  ala 	 1.000000 
1275 	 C 	 25.724460 	 5.108538 	 32.338079 	 C 	 1  ala 	 1.000000 
1276 	 C 	 25.226167 	 5.702028 	 32.970118 	 C 	 1  ala 	 1.000000 
1277 	 C 	 25.862376 	 6.413816 	 32.672469 	 C 	 1  ala 	 1.000000 
1278 	 C 	 25.610838 	 6.441701 	 33.639915 	 C 	 1  ala 	 1.000000 
1279 	 C 	 24.962541 	 5.986087 	 33.029893 	 C 	 1  ala 	 1.000000 
1280 	 C 	 24.657278 	 5.429704 	 33.802715 	 C 	 1  ala 	 1.000000 
1281 	 C 	 24.586119 	 5.196571 	 34.772552 	 C 	 1  ala 	 1.000000 
1282 	 C 	 25.166255 	 5.917866 	 34.394167 	 C 	 1  ala 	 1.000000 
1283 	 C 	 24.981067 	 5.987516 	 35.374398 	 C 	 1  ala 	 1.000000 
1284 	 C 	 24.983705 	 5.160922 	 34.811605 	 C 	 1  ala 	 1.000000 
1285 	 C 	 25.932498 	 5.459047 	 34.707139 	 C 	 1  ala 	 1.000000 
1286 	 C 	 26.348029 	 4.995332 	 33.924642 	 C 	 1  ala 	 1.000000 
1287 	 C 	 25.584956 	 5.547143 	 33.588154 	 C 	 1  ala 	 1.000000 
1288 	 C 	 25.525348 	 6.545197 	 33.606425 	 C 	 1  ala 	 1.000000 
1289 	 C 	 26.413206 	 6.598541 	 33.149410 	 C 	 1  ala 	 1.000000 
1290 	 C 	 26.869786 	 5.987604 	 33.796164 	 C 	 1  ala 	 1.000000 
1291 	 C 	 25.960500 	 6.286656 	 34.085588 	 C 	 1  ala 	 1.000000 
1292 	 C 	 25.757162 	 5.307668 	 34.070188 	 C 	 1  ala 	 1.000000 
1293 	 C 	 26.606759 	 5.339225 	 33.543699 	 C 	 1  ala 	 1.000000 
1294 	 C 	 25.848781 	 5.263280 	 34.191543 	 C 	 1  ala 	 1.000000 
1295 	 C 	 25.774021 	 4.655599 	 34.982198 	 C 	 1  ala 	 1.000000 
1296 	 C 	 25.505828 	 5.295727 	 35.702134 	 C 	 1  ala 	 1.000000 
1297 	 C 	 24.687032 	 5.131596 	 36.252257 	 C 	 1  ala 	 1.000000 
1298 	 C 	 24.685301 	 5.695397 	 35.426348 	 C 	 1  ala 	 1.000000 
1299 	 C 	 24.588389 	 4.702201 	 35.361769 	 C 	 1  ala 	 1.000000 
1300 	 C 	 24.867069 	 5.658343 	 35.271598 	 C 	 1  ala 	 1.000000 
1301 	 C 	 25.448265 	 6.440060 	 35.045479 	 C 	 1  ala 	 1.000000 
1302 	 C 	 25.610980 	 7.043249 	 34.264655 	 C 	 1  ala 	 1.000000 
1303 	 C 	 25.324211 	 7.974845 	 34.488023 	 C 	 1  ala 	 1.000000 
1304 	 C 	 25.106345 	 7.803889 	 33.527133 	 C 	 1  ala 	 1.000000 
1305 	 C 	 24.719915 	 6.948704 	 33.872575 	 C 	 1  ala 	 1.000000 
1306 	 C 	 25.636131 	 7.178069 	 34.201117 	 C 	 1  ala 	 1.000000 
1307 	 C 	 24.919956 	 6.691594 	 34.701551 	 C 	 1  ala 	 1.000000 
1308 	 C 	 24.178575 	 6.886238 	 34.059314 	 C 	 1  ala 	 1.000000 
1309 	 C 	 23.693664 	 7.108866 	 33.213561 	 C 	 1  ala 	 1.000000 
1310 	 C 	 23.437462 	 6.219189 	 33.591495 	 C 	 1  ala 	 1.000000 
1311 	 C 	 23.599985 	 7.191868 	 33.425721 	 C 	 1  ala 	 1.000000 
1312 	 C 	 24.345286 	 7.021689 	 32.781076 	 C 	 1  ala 	 1.000000 
1313 	 C 	 23.654411 	 7.471234 	 32.214860 	 C 	 1  ala 	 1.000000 
1314 	 C 	 23.446357 	 8.410807 	 31.942984 	 C 	 1  ala 	 1.000000 
1315 	 C 	 22.738305 	 7.705595 	 31.979574 	 C 	 1  ala 	 1.000000 
1316 	 C 	 22.342391 	 6.792822 	 32.080062 	 C 	 1  ala 	 1.000000 
1317 	 C 	 22.365833 	 6.363494 	 32.982906 	 C 	 1  ala 	 1.000000 
1318 	 C 	 22.171183 	 5.391878 	 33.117350 	 C 	 1  ala 	 1.000000 
1319 	 C 	 22.167482 	 4.500598 	 32.663913 	 C 	 1  ala 	 1.000000 
1320 	 C 	 22.508242 	 5.365986 	 33.031316 	 C 	 1  ala 	 1.000000 
1321 	 C 	 21.921907 	 4.950454 	 32.335943 	 C 	 1  ala 	 1.000000 
1322 	 C 	 22.639476 	 4.648057 	 31.708527 	 C 	 1  ala 	 1.000000 
1323 	 C 	 22.341882 	 4.151221 	 32.523753 	 C 	 1  ala 	 1.000000 
1324 	 C 	 22.868874 	 4.967528 	 32.760236 	 C 	 1  ala 	 1.000000 
1325 	 C 	 23.342544 	 5.743976 	 33.175885 	 C 	 1  ala 	 1.000000 
1326 	 C 	 23.831825 	 5.023470 	 33.667286 	 C 	 1  ala 	 1.000000 
1327 	 C 	 24.136807 	 4.074042 	 33.741929 	 C 	 1  ala 	 1.000000 
1328 	 C 	 23.607655 	 4.639314 	 33.109106 	 C 	 1  ala 	 1.000000 
1329 	 C 	 23.578274 	 5.271598 	 32.334926 	 C 	 1  ala 	 1.000000 
1330 	 C 	 22.611750 	 5.518276 	 32.264349 	 C 	 1  ala 	 1.000000 
1331 	 C 	 21.853522 	 4.914517 	 32.018248 	 C 	 1  ala 	 1.000000 
1332 	 C 	 22.812292 	 4.669573 	 32.162344 	 C 	 1  ala 	 1.000000 
1333 	 C 	 22.093225 	 5.311416 	 32.428768 	 C 	 1  ala 	 1.000000 
1334 	 C 	 21.823765 	 5.124242 	 31.484121 	 C 	 1  ala 	 1.000000 
1335 	 C 	 21.355422 	 6.000767 	 31.372950 	 C 	 1  ala 	 1.000000 
1336 	 C 	 21.976378 	 6.320906 	 30.657460 	 C 	 1  ala 	 1.000000 
1337 	 C 	 22.964667 	 6.195855 	 30.744907 	 C 	 1  ala 	 1.000000 
1338 	 C 	 22.227065 	 5.533903 	 30.611627 	 C 	 1  ala 	 1.000000 
1339 	 C 	 22.694046 	 5.993503 	 29.856183 	 C 	 1  ala 	 1.000000 
1340 	 C 	 22.473860 	 6.211188 	 28.905325 	 C 	 1  ala 	 1.000000 
1341 	 C 	 23.109682 	 5.512789 	 29.233912 	 C 	 1  ala 	 1.000000 
1342 	 C 	 23.400819 	 4.563611 	 29.114328 	 C 	 1  ala 	 1.000000 
1343 	 C 	 22.993247 	 3.704980 	 28.803462 	 C 	 1  ala 	 1.000000 
1344 	 C 	 22.802755 	 4.685329 	 28.854724 	 C 	 1  ala 	 1.000000 
1345 	 C 	 22.036530 	 4.471190 	 28.248883 	 C 	 1  ala 	 1.000000 
1346 	 C 	 22.181521 	 5.401196 	 28.586621 	 C 	 1  ala 	 1.000000 
1347 	 C 	 22.677033 	 4.811959 	 27.948446 	 C 	 1  ala 	 1.000000 
1348 	 C 	 23.315812 	 5.432442 	 27.493516 	 C 	 1  ala 	 1.000000 
1349 	 C 	 23.489086 	 6.188564 	 28.124591 	 C 	 1  ala 	 1.000000 
1350 	 C 	 23.838831 	 7.093626 	 28.366546 	 C 	 1  ala 	 1.000000 
1351 	 C 	 23.599578 	 7.388987 	 27.441603 	 C 	 1  ala 	 1.000000 
1352 	 C 	 24.352130 	 6.969214 	 26.934201 	 C 	 1  ala 	 1.000000 
1353 	 C 	 25.309909 	 6.997460 	 26.648087 	 C 	 1  ala 	 1.000000 
1354 	 C 	 24.774809 	 7.302380 	 27.435927 	 C 	 1  ala 	 1.000000 
1355 	 C 	 24.873321 	 6.660742 	 26.675271 	 C 	 1  ala 	 1.000000 
1356 	 C 	 25.472507 	 6.031969 	 26.179670 	 C 	 1  ala 	 1.000000 
1357 	 C 	 24.668715 	 5.860867 	 25.609895 	 C 	 1  ala 	 1.000000 
1358 	 C 	 24.605491 	 4.872938 	 25.468474 	 C 	 1  ala 	 1.000000 
1359 	 C 	 24.783145 	 4.736488 	 26.443061 	 C 	 1  ala 	 1.000000 
1360 	 C 	 24.808374 	 4.067823 	 25.699926 	 C 	 1  ala 	 1.000000 
1361 	 C 	 24.748450 	 4.950886 	 25.234513 	 C 	 1  ala 	 1.000000 
1362 	 C 	 24.712867 	 5.621242 	 24.493327 	 C 	 1  ala 	 1.000000 
1363 	 C 	 24.799323 	 5.051987 	 25.310930 	 C 	 1  ala 	 1.000000 
1364 	 C 	 25.497095 	 5.742708 	 25.500718 	 C 	 1  ala 	 1.000000 
1365 	 C 	 25.145582 	 5.256062 	 24.700959 	 C 	 1  ala 	 1.000000 
1366 	 C 	 24.357743 	 5.325430 	 24.088997 	 C 	 1  ala 	 1.000000 
1367 	 C 	 24.711526 	 4.598271 	 23.500714 	 C 	 1  ala 	 1.000000 
1368 	 C 	 23.763481 	 4.916367 	 23.495668 	 C 	 1  ala 	 1.000000 
1369 	 C 	 24.599624 	 4.772528 	 22.966353 	 C 	 1  ala 	 1.000000 
1370 	 C 	 25.314594 	 4.715206 	 22.269551 	 C 	 1  ala 	 1.000000 
1371 	 C 	 26.043159 	 4.274921 	 22.794280 	 C 	 1  ala 	 1.000000 
1372 	 C 	 25.103753 	 4.617726 	 22.794985 	 C 	 1  ala 	 1.000000 
1373 	 C 	 25.377416 	 4.182070 	 23.652489 	 C 	 1  ala 	 1.000000 
1374 	 C 	 25.874035 	 4.871314 	 23.124936 	 C 	 1  ala 	 1.000000 
1375 	 C 	 25.755838 	 5.665321 	 23.721244 	 C 	 1  ala 	 1.000000 
1376 	 C 	 25.307841 	 5.344127 	 22.886898 	 C 	 1  ala 	 1.000000 
1377 	 C 	 24.498214 	 5.167440 	 22.327179 	 C 	 1  ala 	 1.000000 
1378 	 C 	 24.259457 	 6.137192 	 22.377933 	 C 	 1  ala 	 1.000000 
1379 	 C 	 24.962436 	 6.553292 	 22.954719 	 C 	 1  ala 	 1.000000 
1380 	 C 	 24.643502 	 5.739330 	 23.440257 	 C 	 1  ala 	 1.000000 
1381 	 C 	 24.517413 	 4.794085 	 23.741278 	 C 	 1  ala 	 1.000000 
1382 	 C 	 25.006493 	 4.086209 	 24.250899 	 C 	 1  ala 	 1.000000 
1383 	 C 	 24.704435 	 4.566901 	 23.427675 	 C 	 1  ala 	 1.000000 
1384 	 C 	 25.193216 	 4.619113 	 22.556832 	 C 	 1  ala 	 1.000000 
1385 	 C 	 25.305525 	 5.044958 	 21.659033 	 C 	 1  ala 	 1.000000 
1386 	 C 	 25.748650 	 4.708729 	 22.490051 	 C 	 1  ala 	 1.000000 
1387 	 C 	 26.640728 	 4.933497 	 22.098035 	 C 	 1  ala 	 1.000000 
1388 	 C 	 27.563711 	 5.200522 	 21.820908 	 C 	 1  ala 	 1.000000 
1389 	 C 	 26.700974 	 4.790996 	 22.117510 	 C 	 1  ala 	 1.000000 
1390 	 C 	 27.534810 	 5.086150 	 21.651033 	 C 	 1  ala 	 1.000000 
1391 	 C 	 26.923238 	 5.869142 	 21.537436 	 C 	 1  ala 	 1.000000 
1392 	 C 	 27.088335 	 5.659293 	 20.573742 	 C 	 1  ala 	 1.000000 
1393 	 C 	 26.923699 	 6.541082 	 20.131766 	 C 	 1  ala 	 1.000000 
1394 	 C 	 25.935577 	 6.488048 	 19.987536 	 C 	 1  ala 	 1.000000 
1395 	 C 	 25.714811 	 6.165085 	 20.907839 	 C 	 1  ala 	 1.000000 
1396 	 C 	 26.255888 	 5.483894 	 21.401007 	 C 	 1  ala 	 1.000000 
1397 	 C 	 26.652302 	 6.132732 	 20.751496 	 C 	 1  ala 	 1.000000 
1398 	 C 	 26.211815 	 6.746809 	 20.096606 	 C 	 1  ala 	 1.000000 
1399 	 C 	 25.441927 	 6.261342 	 20.510845 	 C 	 1  ala 	 1.000000 
1400 	 C 	 26.106769 	 5.515881 	 20.558515 	 C 	 1  ala 	 1.000000 
1401 	 C 	 26.479607 	 5.846548 	 19.691537 	 C 	 1  ala 	 1.000000 
1402 	 C 	 26.939562 	 6.533618 	 20.254010 	 C 	 1  ala 	 1.000000 
1403 	 C 	 26.210581 	 6.931163 	 19.696745 	 C 	 1  ala 	 1.000000 
1404 	 C 	 25.781752 	 6.157070 	 20.162455 	 C 	 1  ala 	 1.000000 
1405 	 C 	 25.538590 	 6.200854 	 21.131452 	 C 	 1  ala 	 1.000000 
1406 	 C 	 25.587924 	 6.602361 	 20.216926 	 C 	 1  ala 	 1.000000 
1407 	 C 	 25.334734 	 6.774481 	 21.168907 	 C 	 1  ala 	 1.000000 
1408 	 C 	 26.023488 	 6.087905 	 20.936031 	 C 	 1  ala 	 1.000000 
1409 	 C 	 25.115803 	 5.793363 	 21.234949 	 C 	 1  ala 	 1.000000 
1410 	 C 	 24.701408 	 5.655739 	 22.134581 	 C 	 1  ala 	 1.000000 
1411 	 C 	 25.128922 	 4.808960 	 22.451118 	 C 	 1  ala 	 1.000000 
1412 	 C 	 24.411641 	 4.755365 	 23.145838 	 C 	 1  ala 	 1.000000 
1413 	 C 	 23.951281 	 4.729631 	 24.033197 	 C 	 1  ala 	 1.000000 
1414 	 C 	 23.780818 	 5.319466 	 23.243869 	 C 	 1  ala 	 1.000000 
1415 	 C 	 23.755614 	 4.834732 	 24.118168 	 C 	 1  ala 	 1.000000 
1416 	 C 	 23.787618 	 4.564847 	 25.080528 	 C 	 1  ala 	 1.000000 
1417 	 C 	 23.244578 	 4.823562 	 25.879386 	 C 	 1  ala 	 1.000000 
1418 	 C 	 23.944177 	 5.046444 	 25.200502 	 C 	 1  ala 	 1.000000 
1419 	 C 	 24.893882 	 5.089174 	 24.890285 	 C 	 1  ala 	 1.000000 
1420 	 C 	 24.801525 	 5.794908 	 25.592716 	 C 	 1  ala 	 1.000000 
1421 	 C 	 25.387614 	 5.728720 	 26.400255 	 C 	 1  ala 	 1.000000 
1422 	 C 	 25.814674 	 4.983416 	 25.888256 	 C 	 1  ala 	 1.000000 
1423 	 C 	 25.003490 	 4.413467 	 25.757337 	 C 	 1  ala 	 1.000000 
1424 	 C 	 25.869033 	 4.222505 	 25.294335 	 C 	 1  ala 	 1.000000 
1425 	 C 	 25.367150 	 4.755810 	 25.975290 	 C 	 1  ala 	 1.000000 
1426 	 C 	 24.943935 	 4.832657 	 25.072526 	 C 	 1  ala 	 1.000000 
1427 	 C 	 24.921772 	 4.575893 	 26.038746 	 C 	 1  ala 	 1.000000 
1428 	 C 	 25.163589 	 4.048358 	 25.224356 	 C 	 1  ala 	 1.000000 
1429 	 C 	 24.562490 	 4.358570 	 25.960866 	 C 	 1  ala 	 1.000000 
1430 	 C 	 23.794068 	 4.058294 	 26.525987 	 C 	 1  ala 	 1.000000 
1431 	 C 	 23.900922 	 4.223461 	 25.545527 	 C 	 1  ala 	 1.000000 
1432 	 C 	 23.361138 	 4.234652 	 26.387256 	 C 	 1  ala 	 1.000000 
1433 	 C 	 23.306654 	 4.938759 	 25.679254 	 C 	 1  ala 	 1.000000 
1434 	 C 	 23.171726 	 5.430956 	 24.819291 	 C 	 1  ala 	 1.000000 
1435 	 C 	 23.168663 	 4.741495 	 24.094975 	 C 	 1  ala 	 1.000000 
1436 	 C 	 24.136118 	 4.623459 	 24.318799 	 C 	 1  ala 	 1.000000 
1437 	 C 	 23.217301 	 4.846615 	 23.993257 	 C 	 1  ala 	 1.000000 
1438 	 C 	 24.171867 	 4.848541 	 24.291253 	 C 	 1  ala 	 1.000000 
1439 	 C 	 23.922902 	 5.316781 	 25.139055 	 C 	 1  ala 	 1.000000 
1440 	 C 	 23.672569 	 6.268115 	 25.318766 	 C 	 1  ala 	 1.000000 
1441 	 C 	 24.480029 	 6.669000 	 25.751548 	 C 	 1  ala 	 1.000000 
1442 	 C 	 25.227129 	 6.701204 	 25.087617 	 C 	 1  ala 	 1.000000 
1443 	 C 	 25.975707 	 7.302220 	 24.807598 	 C 	 1  ala 	 1.000000 
1444 	 C 	 26.258269 	 6.418906 	 24.433548 	 C 	 1  ala 	 1.000000 
1445 	 C 	 25.578746 	 6.657457 	 25.127335 	 C 	 1  ala 	 1.000000 
1446 	 C 	 25.568844 	 6.852569 	 24.146604 	 C 	 1  ala 	 1.000000 
1447 	 C 	 24.936586 	 6.231943 	 23.682845 	 C 	 1  ala 	 1.000000 
1448 	 C 	 25.036771 	 7.225848 	 23.728840 	 C 	 1  ala 	 1.000000 
1449 	 C 	 25.521874 	 6.608673 	 23.109349 	 C 	 1  ala 	 1.000000 
1450 	 O 	 24.886699 	 5.897862 	 22.807188 	 O 	 1  ala 	 1.000000 
1451 	 C 	 24.289873 	 5.169222 	 23.143166 	 C 	 1  ala 	 1.000000 
1452 	 C 	 24.736634 	 5.221253 	 22.250027 	 C 	 1  ala 	 1.000000 
1453 	 C 	 25.607386 	 5.464065 	 21.822437 	 C 	 1  ala 	 1.000000 
1454 	 C 	 26.162357 	 4.805937 	 21.313639 	 C 	 1  ala 	 1.000000 
1455 	 C 	 26.653265 	 5.134960 	 20.506946 	 C 	 1  ala 	 1.000000 
1456 	 C 	 26.075526 	 5.067695 	 21.320391 	 C 	 1  ala 	 1.000000 
1457 	 C 	 25.473452 	 5.635253 	 20.758799 	 C 	 1  ala 	 1.000000 
1458 	 C 	 25.491436 	 6.279359 	 19.994075 	 C 	 1  ala 	 1.000000 
1459 	 C 	 24.505675 	 6.439215 	 19.941910 	 C 	 1  ala 	 1.000000 
1460 	 C 	 24.562335 	 7.371767 	 19.585349 	 C 	 1  ala 	 1.000000 
1461 	 C 	 23.664781 	 7.093875 	 19.927655 	 C 	 1  ala 	 1.000000 
1462 	 C 	 24.524594 	 7.504322 	 19.623920 	 C 	 1  ala 	 1.000000 
1463 	 C 	 25.113215 	 7.305453 	 18.840353 	 C 	 1  ala 	 1.000000 
1464 	 C 	 25.993253 	 7.769834 	 18.740933 	 C 	 1  ala 	 1.000000 
1465 	 C 	 26.392311 	 7.278179 	 17.966964 	 C 	 1  ala 	 1.000000 
1466 	 C 	 25.615152 	 7.905958 	 17.923182 	 C 	 1  ala 	 1.000000 
1467 	 C 	 26.048458 	 8.540549 	 17.283229 	 C 	 1  ala 	 1.000000 
1468 	 C 	 26.588969 	 7.930337 	 16.704015 	 C 	 1  ala 	 1.000000 
1469 	 C 	 25.855844 	 7.252951 	 16.764656 	 C 	 1  ala 	 1.000000 
1470 	 C 	 25.602579 	 7.737566 	 17.601917 	 C 	 1  ala 	 1.000000 
1471 	 C 	 25.585879 	 8.478985 	 18.272751 	 C 	 1  ala 	 1.000000 
1472 	 C 	 26.419266 	 8.573423 	 17.728190 	 C 	 1  ala 	 1.000000 
1473 	 C 	 26.540600 	 9.538346 	 17.495378 	 C 	 1  ala 	 1.000000 
1474 	 C 	 25.696995 	 9.604929 	 18.028198 	 C 	 1  ala 	 1.000000 
1475 	 C 	 26.444421 	 10.268474 	 18.060790 	 C 	 1  ala 	 1.000000 
1476 	 C 	 27.386993 	 10.527307 	 17.849691 	 C 	 1  ala 	 1.000000 
1477 	 C 	 27.694734 	 11.427692 	 17.542115 	 C 	 1  ala 	 1.000000 
1478 	 C 	 26.730617 	 11.165475 	 17.583598 	 C 	 1  ala 	 1.000000 
1479 	 C 	 27.276877 	 11.999942 	 17.656154 	 C 	 1  ala 	 1.000000 
1480 	 C 	 27.399516 	 11.198506 	 18.241526 	 C 	 1  ala 	 1.000000 
1481 	 C 	 28.353088 	 11.004553 	 18.471923 	 C 	 1  ala 	 1.000000 
1482 	 C 	 29.105225 	 11.526557 	 18.874169 	 C 	 1  ala 	 1.000000 
1483 	 C 	 29.736192 	 12.297833 	 18.790419 	 C 	 1  ala 	 1.000000 
1484 	 C 	 29.224521 	 12.424326 	 19.640238 	 C 	 1  ala 	 1.000000 
1485 	 C 	 30.169747 	 12.710819 	 19.796662 	 C 	 1  ala 	 1.000000 
1486 	 C 	 29.533209 	 12.933304 	 20.535120 	 C 	 1  ala 	 1.000000 
1487 	 C 	 29.878084 	 12.558834 	 21.395837 	 C 	 1  ala 	 1.000000 
1488 	 C 	 29.553731 	 12.882840 	 22.284553 	 C 	 1  ala 	 1.000000 
1489 	 C 	 29.177036 	 13.777407 	 22.044029 	 C 	 1  ala 	 1.000000 
1490 	 C 	 29.771995 	 14.564688 	 21.882129 	 C 	 1  ala 	 1.000000 
1491 	 C 	 29.327122 	 14.539164 	 20.986900 	 C 	 1  ala 	 1.000000 
1492 	 C 	 28.548101 	 14.706469 	 21.591164 	 C 	 1  ala 	 1.000000 
1493 	 C 	 29.226653 	 14.214475 	 21.045721 	 C 	 1  ala 	 1.000000 
1494 	 C 	 29.254558 	 14.712754 	 20.179154 	 C 	 1  ala 	 1.000000 
1495 	 C 	 29.046999 	 15.690899 	 20.166805 	 C 	 1  ala 	 1.000000 
1496 	 C 	 28.070386 	 15.549444 	 20.004885 	 C 	 1  ala 	 1.000000 
1497 	 C 	 28.928195 	 15.811607 	 20.446965 	 C 	 1  ala 	 1.000000 
1498 	 C 	 28.172763 	 16.159327 	 19.891615 	 C 	 1  ala 	 1.000000 
1499 	 C 	 28.526298 	 17.047920 	 19.599356 	 C 	 1  ala 	 1.000000 
1500 	 C 	 28.451459 	 16.272322 	 20.226131 	 C 	 1  ala 	 1.000000 
1501 	 C 	 28.608398 	 15.738649 	 19.395130 	 C 	 1  ala 	 1.000000 
1502 	 C 	 28.201084 	 15.883051 	 18.493330 	 C 	 1  ala 	 1.000000 
1503 	 C 	 28.822861 	 15.403203 	 19.112312 	 C 	 1  ala 	 1.000000 
1504 	 C 	 29.608070 	 15.995141 	 19.294128 	 C 	 1  ala 	 1.000000 
1505 	 C 	 28.720944 	 15.555832 	 19.435608 	 C 	 1  ala 	 1.000000 
1506 	 C 	 28.804742 	 16.549643 	 19.362676 	 C 	 1  ala 	 1.000000 
1507 	 C 	 29.663714 	 16.892766 	 19.742720 	 C 	 1  ala 	 1.000000 
1508 	 C 	 29.583697 	 15.899140 	 19.822119 	 C 	 1  ala 	 1.000000 
1509 	 C 	 30.490434 	 15.957464 	 20.239763 	 C 	 1  ala 	 1.000000 
1510 	 C 	 30.629341 	 15.244438 	 19.552523 	 C 	 1  ala 	 1.000000 
1511 	 C 	 31.186620 	 16.074411 	 19.528322 	 C 	 1  ala 	 1.000000 
1512 	 C 	 30.874944 	 15.873358 	 20.456997 	 C 	 1  ala 	 1.000000 
1513 	 C 	 31.256580 	 16.492766 	 21.143064 	 C 	 1  ala 	 1.000000 
1514 	 C 	 31.576570 	 17.313620 	 20.669984 	 C 	 1  ala 	 1.000000 
1515 	 C 	 31.379936 	 17.599980 	 19.732256 	 C 	 1  ala 	 1.000000 
1516 	 C 	 30.486575 	 17.618133 	 19.283285 	 C 	 1  ala 	 1.000000 
1517 	 C 	 29.987403 	 17.865470 	 20.113738 	 C 	 1  ala 	 1.000000 
1518 	 C 	 29.496566 	 17.001364 	 20.225092 	 C 	 1  ala 	 1.000000 
1519 	 C 	 30.057450 	 17.236995 	 19.431438 	 C 	 1  ala 	 1.000000 
1520 	 C 	 30.688738 	 17.211620 	 20.206571 	 C 	 1  ala 	 1.000000 
1521 	 C 	 31.434940 	 16.732937 	 19.743922 	 C 	 1  ala 	 1.000000 
1522 	 C 	 30.841285 	 16.225013 	 20.368090 	 C 	 1  ala 	 1.000000 
1523 	 C 	 30.863311 	 15.400269 	 20.933167 	 C 	 1  ala 	 1.000000 
1524 	 C 	 29.943374 	 15.651245 	 20.631960 	 C 	 1  ala 	 1.000000 
1525 	 C 	 29.213310 	 14.992972 	 20.448426 	 C 	 1  ala 	 1.000000 
1526 	 C 	 29.019980 	 15.972512 	 20.392519 	 C 	 1  ala 	 1.000000 
1527 	 C 	 28.812136 	 15.139627 	 19.879584 	 C 	 1  ala 	 1.000000 
1528 	 C 	 28.723198 	 14.205578 	 20.225480 	 C 	 1  ala 	 1.000000 
1529 	 C 	 28.899420 	 14.166140 	 21.209040 	 C 	 1  ala 	 1.000000 
1530 	 C 	 28.734666 	 14.257782 	 22.191108 	 C 	 1  ala 	 1.000000 
1531 	 C 	 29.254928 	 14.176267 	 21.341000 	 C 	 1  ala 	 1.000000 
1532 	 C 	 28.271387 	 14.194649 	 21.520750 	 C 	 1  ala 	 1.000000 
1533 	 C 	 28.016472 	 15.123488 	 21.789592 	 C 	 1  ala 	 1.000000 
1534 	 C 	 27.728422 	 16.080395 	 21.826445 	 C 	 1  ala 	 1.000000 
1535 	 C 	 28.171671 	 16.211537 	 20.939691 	 C 	 1  ala 	 1.000000 
1536 	 C 	 28.259210 	 17.015769 	 21.527524 	 C 	 1  ala 	 1.000000 
1537 	 C 	 28.088990 	 17.377949 	 22.443957 	 C 	 1  ala 	 1.000000 
1538 	 C 	 27.911165 	 16.486553 	 22.860840 	 C 	 1  ala 	 1.000000 
1539 	 C 	 27.709608 	 17.024905 	 23.679101 	 C 	 1  ala 	 1.000000 
1540 	 C 	 27.195579 	 16.629262 	 22.918023 	 C 	 1  ala 	 1.000000 
1541 	 C 	 27.775742 	 15.965238 	 22.446341 	 C 	 1  ala 	 1.000000 
1542 	 C 	 26.905548 	 16.380315 	 22.180871 	 C 	 1  ala 	 1.000000 
1543 	 C 	 25.910384 	 16.368319 	 22.083375 	 C 	 1  ala 	 1.000000 
1544 	 C 	 26.293244 	 15.901898 	 22.880790 	 C 	 1  ala 	 1.000000 
1545 	 C 	 26.175341 	 14.909035 	 22.898730 	 C 	 1  ala 	 1.000000 
1546 	 C 	 25.769205 	 14.939491 	 23.812035 	 C 	 1  ala 	 1.000000 
1547 	 C 	 24.962914 	 15.028677 	 24.396792 	 C 	 1  ala 	 1.000000 
1548 	 C 	 24.745356 	 15.918909 	 23.996597 	 C 	 1  ala 	 1.000000 
1549 	 C 	 24.908469 	 16.016336 	 23.014812 	 C 	 1  ala 	 1.000000 
1550 	 N 	 23.940970 	 16.090650 	 23.256521 	 N 	 1  ala 	 1.000000 
1551 	 C 	 22.991397 	 16.404129 	 23.262950 	 C 	 1  ala 	 1.000000 
1552 	 C 	 23.977500 	 16.516759 	 23.140821 	 C 	 1  ala 	 1.000000 
1553 	 C 	 24.656571 	 16.015885 	 22.604176 	 C 	 1  ala 	 1.000000 
1554 	 C 	 25.307958 	 15.831504 	 23.340177 	 C 	 1  ala 	 1.000000 
1555 	 C 	 24.937521 	 15.974310 	 22.422363 	 C 	 1  ala 	 1.000000 
1556 	 C 	 24.374776 	 16.738885 	 22.736596 	 C 	 1  ala 	 1.000000 
1557 	 C 	 25.198242 	 16.709240 	 23.303186 	 C 	 1  ala 	 1.000000 
1558 	 C 	 25.712154 	 17.478413 	 22.923360 	 C 	 1  ala 	 1.000000 
1559 	 C 	 25.959173 	 17.490964 	 21.954431 	 C 	 1  ala 	 1.000000 
1560 	 C 	 26.583335 	 18.249768 	 22.140543 	 C 	 1  ala 	 1.000000 
1561 	 C 	 26.040297 	 18.191595 	 21.302853 	 C 	 1  ala 	 1.000000 
1562 	 C 	 26.963769 	 18.554549 	 21.427204 	 C 	 1  ala 	 1.000000 
1563 	 C 	 26.428709 	 17.997600 	 22.062435 	 C 	 1  ala 	 1.000000 
1564 	 C 	 25.781854 	 17.240883 	 22.157083 	 C 	 1  ala 	 1.000000 
1565 	 C 	 26.369320 	 16.726042 	 21.532726 	 C 	 1  ala 	 1.000000 
1566 	 C 	 26.720637 	 16.404972 	 22.412209 	 C 	 1  ala 	 1.000000 
1567 	 C 	 25.854724 	 16.901746 	 22.470603 	 C 	 1  ala 	 1.000000 
1568 	 C 	 25.879453 	 16.765722 	 21.480206 	 C 	 1  ala 	 1.000000 
1569 	 C 	 25.982375 	 16.870469 	 22.469365 	 C 	 1  ala 	 1.000000 
1570 	 C 	 26.389335 	 17.629771 	 21.961581 	 C 	 1  ala 	 1.000000 
1571 	 C 	 27.312482 	 17.633603 	 21.577155 	 C 	 1  ala 	 1.000000 
1572 	 C 	 26.545052 	 17.173503 	 22.023651 	 C 	 1  ala 	 1.000000 
1573 	 C 	 25.990401 	 16.617829 	 22.642996 	 C 	 1  ala 	 1.000000 
1574 	 C 	 26.815519 	 16.154118 	 22.320268 	 C 	 1  ala 	 1.000000 
1575 	 C 	 26.023650 	 15.942657 	 21.747355 	 C 	 1  ala 	 1.000000 
1576 	 C 	 25.071961 	 15.738348 	 21.518130 	 C 	 1  ala 	 1.000000 
1577 	 C 	 24.816377 	 14.771642 	 21.505581 	 C 	 1  ala 	 1.000000 
1578 	 C 	 24.070424 	 15.348759 	 21.837983 	 C 	 1  ala 	 1.000000 
1579 	 C 	 23.710331 	 15.715546 	 22.695770 	 C 	 1  ala 	 1.000000 
1580 	 C 	 24.567862 	 15.210231 	 22.792191 	 C 	 1  ala 	 1.000000 
1581 	 C 	 24.294350 	 14.408731 	 23.323970 	 C 	 1  ala 	 1.000000 
1582 	 C 	 23.919667 	 14.601961 	 24.230764 	 C 	 1  ala 	 1.000000 
1583 	 C 	 24.285981 	 14.249528 	 23.369599 	 C 	 1  ala 	 1.000000 
1584 	 C 	 25.080767 	 14.771707 	 23.678863 	 C 	 1  ala 	 1.000000 
1585 	 C 	 25.900853 	 14.302118 	 24.005886 	 C 	 1  ala 	 1.000000 
1586 	 C 	 25.156382 	 14.386909 	 24.668135 	 C 	 1  ala 	 1.000000 
1587 	 C 	 25.723551 	 14.289692 	 25.485979 	 C 	 1  ala 	 1.000000 
1588 	 C 	 24.950356 	 14.923536 	 25.506280 	 C 	 1  ala 	 1.000000 
1589 	 C 	 25.041396 	 14.652879 	 24.547919 	 C 	 1  ala 	 1.000000 
1590 	 C 	 25.130979 	 13.795627 	 24.040874 	 C 	 1  ala 	 1.000000 
1591 	 C 	 24.644544 	 14.137380 	 23.236769 	 C 	 1  ala 	 1.000000 
1592 	 C 	 23.683725 	 13.861278 	 23.212376 	 C 	 1  ala 	 1.000000 
1593 	 C 	 22.978149 	 13.582982 	 23.864076 	 C 	 1  ala 	 1.000000 
1594 	 C 	 22.584720 	 13.949292 	 24.707303 	 C 	 1  ala 	 1.000000 
1595 	 C 	 23.372588 	 14.337779 	 25.185153 	 C 	 1  ala 	 1.000000 
1596 	 C 	 23.787542 	 14.990116 	 24.550906 	 C 	 1  ala 	 1.000000 
1597 	 C 	 22.944809 	 15.295619 	 24.994155 	 C 	 1  ala 	 1.000000 
1598 	 C 	 22.277959 	 14.918842 	 24.351231 	 C 	 1  ala 	 1.000000 
1599 	 C 	 22.222939 	 14.310242 	 23.559665 	 C 	 1  ala 	 1.000000 
1600 	 C 	 22.659676 	 14.162885 	 24.447103 	 C 	 1  ala 	 1.000000 
1601 	 C 	 23.497341 	 14.444384 	 24.915156 	 C 	 1  ala 	 1.000000 
1602 	 C 	 22.588696 	 14.152186 	 24.616854 	 C 	 1  ala 	 1.000000 
1603 	 C 	 21.863214 	 14.505761 	 24.026381 	 C 	 1  ala 	 1.000000 
1604 	 C 	 22.233979 	 14.426128 	 24.951687 	 C 	 1  ala 	 1.000000 
1605 	 C 	 22.071481 	 14.548651 	 25.930759 	 C 	 1  ala 	 1.000000 
1606 	 C 	 21.348658 	 13.868388 	 26.052286 	 C 	 1  ala 	 1.000000 
1607 	 C 	 20.793004 	 13.528243 	 26.810937 	 C 	 1  ala 	 1.000000 
1608 	 C 	 20.732110 	 14.190409 	 27.557815 	 C 	 1  ala 	 1.000000 
1609 	 C 	 21.324851 	 13.519561 	 28.003485 	 C 	 1  ala 	 1.000000 
1610 	 C 	 20.833875 	 13.202222 	 27.192166 	 C 	 1  ala 	 1.000000 
1611 	 C 	 20.612562 	 14.058747 	 27.658412 	 C 	 1  ala 	 1.000000 
1612 	 C 	 19.715232 	 14.350148 	 27.989900 	 C 	 1  ala 	 1.000000 
1613 	 C 	 20.069130 	 14.826024 	 28.795070 	 C 	 1  ala 	 1.000000 
1614 	 C 	 20.439805 	 15.215284 	 27.951816 	 C 	 1  ala 	 1.000000 
1615 	 C 	 20.607448 	 15.228930 	 26.966063 	 C 	 1  ala 	 1.000000 
1616 	 C 	 21.332472 	 14.540672 	 26.940761 	 C 	 1  ala 	 1.000000 
1617 	 C 	 21.083106 	 14.135862 	 27.820503 	 C 	 1  ala 	 1.000000 
1618 	 C 	 21.920102 	 14.608403 	 28.096444 	 C 	 1  ala 	 1.000000 
1619 	 C 	 20.963081 	 14.814949 	 28.300037 	 C 	 1  ala 	 1.000000 
1620 	 C 	 21.115949 	 15.378696 	 29.111715 	 C 	 1  ala 	 1.000000 
1621 	 C 	 21.488251 	 15.460174 	 30.036243 	 C 	 1  ala 	 1.000000 
1622 	 C 	 21.909112 	 16.331796 	 29.784946 	 C 	 1  ala 	 1.000000 
1623 	 C 	 22.634419 	 16.242331 	 30.467534 	 C 	 1  ala 	 1.000000 
1624 	 C 	 22.221647 	 16.275625 	 29.557308 	 C 	 1  ala 	 1.000000 
1625 	 C 	 21.670850 	 17.050706 	 29.247676 	 C 	 1  ala 	 1.000000 
1626 	 C 	 22.244585 	 16.232936 	 29.293281 	 C 	 1  ala 	 1.000000 
1627 	 C 	 22.715078 	 16.842567 	 29.931236 	 C 	 1  ala 	 1.000000 
1628 	 C 	 22.183181 	 16.340785 	 29.249106 	 C 	 1  ala 	 1.000000 
1629 	 C 	 22.827468 	 16.464035 	 30.003893 	 C 	 1  ala 	 1.000000 
1630 	 C 	 22.972003 	 17.265075 	 30.584793 	 C 	 1  ala 	 1.000000 
1631 	 C 	 23.357362 	 16.375335 	 30.829457 	 C 	 1  ala 	 1.000000 
1632 	 C 	 22.442679 	 16.498211 	 30.444417 	 C 	 1  ala 	 1.000000 
1633 	 C 	 22.605940 	 17.311424 	 31.003014 	 C 	 1  ala 	 1.000000 
1634 	 C 	 22.248213 	 16.585845 	 31.590862 	 C 	 1  ala 	 1.000000 
1635 	 C 	 21.734984 	 15.754564 	 31.377395 	 C 	 1  ala 	 1.000000 
1636 	 C 	 22.597035 	 15.710292 	 31.882278 	 C 	 1  ala 	 1.000000 
1637 	 C 	 22.991056 	 16.605517 	 32.090409 	 C 	 1  ala 	 1.000000 
1638 	 C 	 23.893285 	 16.688309 	 32.513645 	 C 	 1  ala 	 1.000000 
1639 	 C 	 23.852104 	 15.740567 	 32.830014 	 C 	 1  ala 	 1.000000 
1640 	 C 	 23.203847 	 16.331548 	 32.349906 	 C 	 1  ala 	 1.000000 
1641 	 C 	 22.624769 	 17.144041 	 32.417165 	 C 	 1  ala 	 1.000000 
1642 	 C 	 23.006989 	 18.045854 	 32.618761 	 C 	 1  ala 	 1.000000 
1643 	 C 	 23.689611 	 18.776623 	 32.616793 	 C 	 1  ala 	 1.000000 
1644 	 C 	 24.077068 	 18.059835 	 32.037059 	 C 	 1  ala 	 1.000000 
1645 	 C 	 24.006664 	 17.363522 	 32.751336 	 C 	 1  ala 	 1.000000 
1646 	 C 	 24.802299 	 17.802327 	 33.168966 	 C 	 1  ala 	 1.000000 
1647 	 C 	 25.233166 	 16.911628 	 33.024021 	 C 	 1  ala 	 1.000000 
1648 	 C 	 24.776506 	 17.715220 	 32.642314 	 C 	 1  ala 	 1.000000 
1649 	 C 	 24.977770 	 18.553617 	 32.135772 	 C 	 1  ala 	 1.000000 
1650 	 C 	 24.845671 	 19.407884 	 32.638541 	 C 	 1  ala 	 1.000000 
1651 	 C 	 24.643812 	 18.756796 	 31.906873 	 C 	 1  ala 	 1.000000 
1652 	 C 	 24.881804 	 18.521040 	 30.964653 	 C 	 1  ala 	 1.000000 
1653 	 C 	 25.736454 	 18.236783 	 30.530175 	 C 	 1  ala 	 1.000000 
1654 	 C 	 25.473774 	 19.165657 	 30.269039 	 C 	 1  ala 	 1.000000 
1655 	 C 	 26.455750 	 18.979407 	 30.301182 	 C 	 1  ala 	 1.000000 
1656 	 C 	 25.698399 	 18.462729 	 29.901855 	 C 	 1  ala 	 1.000000 
1657 	 C 	 25.789871 	 18.844098 	 28.981968 	 C 	 1  ala 	 1.000000 
1658 	 C 	 25.115415 	 19.334655 	 28.430187 	 C 	 1  ala 	 1.000000 
1659 	 C 	 24.184260 	 19.699273 	 28.428251 	 C 	 1  ala 	 1.000000 
1660 	 C 	 24.871615 	 19.604600 	 29.148376 	 C 	 1  ala 	 1.000000 
1661 	 C 	 25.640282 	 19.171893 	 29.619455 	 C 	 1  ala 	 1.000000 
1662 	 C 	 25.380545 	 20.008396 	 30.101948 	 C 	 1  ala 	 1.000000 
1663 	 C 	 24.671122 	 19.705465 	 30.738307 	 C 	 1  ala 	 1.000000 
1664 	 C 	 25.651869 	 19.775884 	 30.556162 	 C 	 1  ala 	 1.000000 
1665 	 C 	 25.808410 	 19.856617 	 29.571796 	 C 	 1  ala 	 1.000000 
1666 	 C 	 25.512105 	 20.781821 	 29.808862 	 C 	 1  ala 	 1.000000 
1667 	 C 	 26.475799 	 20.854338 	 30.065836 	 C 	 1  ala 	 1.000000 
1668 	 C 	 26.213148 	 20.157620 	 29.398305 	 C 	 1  ala 	 1.000000 
1669 	 C 	 26.714652 	 20.799732 	 29.978121 	 C 	 1  ala 	 1.000000 
1670 	 C 	 26.989169 	 21.364041 	 29.199535 	 C 	 1  ala 	 1.000000 
1671 	 C 	 26.401227 	 20.886701 	 28.546488 	 C 	 1  ala 	 1.000000 
1672 	 C 	 26.509856 	 21.132182 	 27.583192 	 C 	 1  ala 	 1.000000 
1673 	 C 	 25.968984 	 20.331582 	 27.325322 	 C 	 1  ala 	 1.000000 
1674 	 C 	 25.271494 	 19.651867 	 27.098398 	 C 	 1  ala 	 1.000000 
1675 	 C 	 25.791605 	 19.746809 	 27.947203 	 C 	 1  ala 	 1.000000 
1676 	 C 	 26.161074 	 19.897925 	 27.030330 	 C 	 1  ala 	 1.000000 
1677 	 C 	 25.631222 	 20.128213 	 26.214104 	 C 	 1  ala 	 1.000000 
1678 	 C 	 26.297842 	 19.499278 	 25.814030 	 C 	 1  ala 	 1.000000 
1679 	 C 	 26.696085 	 20.387182 	 25.583750 	 C 	 1  ala 	 1.000000 
1680 	 C 	 25.857879 	 20.041852 	 25.161663 	 C 	 1  ala 	 1.000000 
1681 	 C 	 26.580049 	 20.012703 	 24.470562 	 C 	 1  ala 	 1.000000 
1682 	 C 	 26.577654 	 19.190071 	 23.901993 	 C 	 1  ala 	 1.000000 
1683 	 C 	 26.783474 	 18.997359 	 22.942566 	 C 	 1  ala 	 1.000000 
1684 	 C 	 27.725895 	 18.663982 	 22.916065 	 C 	 1  ala 	 1.000000 
1685 	 C 	 26.779278 	 18.842070 	 22.647363 	 C 	 1  ala 	 1.000000 
1686 	 C 	 27.675862 	 19.276956 	 22.731094 	 C 	 1  ala 	 1.000000 
1687 	 C 	 27.283638 	 18.454798 	 22.318520 	 C 	 1  ala 	 1.000000 
1688 	 C 	 26.357052 	 18.094731 	 22.209935 	 C 	 1  ala 	 1.000000 
1689 	 C 	 26.132288 	 17.159078 	 21.937840 	 C 	 1  ala 	 1.000000 
1690 	 C 	 26.367453 	 16.734275 	 22.812048 	 C 	 1  ala 	 1.000000 
1691 	 C 	 25.664566 	 16.244238 	 23.327619 	 C 	 1  ala 	 1.000000 
1692 	 C 	 24.916810 	 15.877380 	 22.774196 	 C 	 1  ala 	 1.000000 
1693 	 C 	 25.474708 	 16.498096 	 22.223323 	 C 	 1  ala 	 1.000000 
1694 	 C 	 24.505773 	 16.497384 	 22.470636 	 C 	 1  ala 	 1.000000 
1695 	 C 	 25.424124 	 16.888964 	 22.413226 	 C 	 1  ala 	 1.000000 
1696 	 C 	 25.691679 	 16.640025 	 21.482397 	 C 	 1  ala 	 1.000000 
1697 	 C 	 26.438394 	 16.156874 	 21.025253 	 C 	 1  ala 	 1.000000 
1698 	 C 	 26.988937 	 16.046780 	 20.197737 	 C 	 1  ala 	 1.000000 
1699 	 C 	 26.774092 	 16.542356 	 21.039311 	 C 	 1  ala 	 1.000000 
1700 	 C 	 26.837690 	 17.318777 	 21.666309 	 C 	 1  ala 	 1.000000 
1701 	 C 	 27.495477 	 17.151699 	 22.400749 	 C 	 1  ala 	 1.000000 
1702 	 C 	 26.815166 	 17.884500 	 22.414127 	 C 	 1  ala 	 1.000000 
1703 	 C 	 26.791810 	 17.762075 	 21.421924 	 C 	 1  ala 	 1.000000 
1704 	 C 	 27.707995 	 18.092287 	 21.194843 	 C 	 1  ala 	 1.000000 
1705 	 C 	 28.562801 	 18.502784 	 21.512333 	 C 	 1  ala 	 1.000000 
1706 	 C 	 27.886888 	 18.000143 	 22.051307 	 C 	 1  ala 	 1.000000 
1707 	 C 	 27.803360 	 18.977645 	 21.857628 	 C 	 1  ala 	 1.000000 
1708 	 C 	 27.738692 	 18.340753 	 22.625864 	 C 	 1  ala 	 1.000000 
1709 	 C 	 27.401277 	 17.783934 	 21.866848 	 C 	 1  ala 	 1.000000 
1710 	 C 	 27.526262 	 18.540806 	 22.508349 	 C 	 1  ala 	 1.000000 
1711 	 C 	 26.581013 	 18.692659 	 22.219481 	 C 	 1  ala 	 1.000000 
1712 	 C 	 25.915870 	 17.960806 	 22.367720 	 C 	 1  ala 	 1.000000 
1713 	 C 	 25.058484 	 17.913982 	 22.880259 	 C 	 1  ala 	 1.000000 
1714 	 C 	 25.137927 	 18.810200 	 22.443816 	 C 	 1  ala 	 1.000000 
1715 	 C 	 25.079316 	 18.979559 	 23.427626 	 C 	 1  ala 	 1.000000 
1716 	 C 	 25.447793 	 19.053232 	 22.500913 	 C 	 1  ala 	 1.000000 
1717 	 C 	 25.878354 	 19.437603 	 23.317538 	 C 	 1  ala 	 1.000000 
1718 	 C 	 26.395831 	 18.654686 	 23.662876 	 C 	 1  ala 	 1.000000 
1719 	 C 	 25.941335 	 17.989885 	 24.255728 	 C 	 1  ala 	 1.000000 
1720 	 C 	 26.098870 	 18.700711 	 23.570228 	 C 	 1  ala 	 1.000000 
1721 	 C 	 25.802643 	 18.115841 	 22.815128 	 C 	 1  ala 	 1.000000 
1722 	 C 	 25.954121 	 18.683887 	 22.006191 	 C 	 1  ala 	 1.000000 
1723 	 C 	 25.214081 	 18.322417 	 21.439022 	 C 	 1  ala 	 1.000000 
1724 	 C 	 24.216451 	 18.342634 	 21.504791 	 C 	 1  ala 	 1.000000 
1725 	 C 	 23.367576 	 17.910745 	 21.200025 	 C 	 1  ala 	 1.000000 
1726 	 C 	 23.471416 	 17.098682 	 21.774282 	 C 	 1  ala 	 1.000000 
1727 	 C 	 23.302367 	 16.539292 	 22.585765 	 C 	 1  ala 	 1.000000 
1728 	 C 	 22.875931 	 17.306374 	 22.106455 	 C 	 1  ala 	 1.000000 
1729 	 C 	 22.583524 	 17.191526 	 23.055828 	 C 	 1  ala 	 1.000000 
1730 	 C 	 21.807462 	 17.519803 	 22.517346 	 C 	 1  ala 	 1.000000 
1731 	 C 	 21.551863 	 16.702023 	 23.033006 	 C 	 1  ala 	 1.000000 
1732 	 C 	 22.465563 	 16.855027 	 23.409492 	 C 	 1  ala 	 1.000000 
1733 	 C 	 21.881054 	 16.132724 	 23.779125 	 C 	 1  ala 	 1.000000 
1734 	 C 	 21.363057 	 16.318262 	 24.614142 	 C 	 1  ala 	 1.000000 
1735 	 C 	 20.648148 	 17.001747 	 24.466652 	 C 	 1  ala 	 1.000000 
1736 	 C 	 20.834786 	 16.031453 	 24.312719 	 C 	 1  ala 	 1.000000 
1737 	 C 	 20.209719 	 15.460783 	 23.780152 	 C 	 1  ala 	 1.000000 
1738 	 C 	 19.687260 	 14.609488 	 23.828465 	 C 	 1  ala 	 1.000000 
1739 	 C 	 19.922670 	 14.350184 	 22.891799 	 C 	 1  ala 	 1.000000 
1740 	 C 	 20.910479 	 14.325476 	 23.045495 	 C 	 1  ala 	 1.000000 
1741 	 C 	 19.925844 	 14.150961 	 23.051795 	 C 	 1  ala 	 1.000000 
1742 	 C 	 20.606848 	 14.850387 	 23.268677 	 C 	 1  ala 	 1.000000 
1743 	 C 	 20.095618 	 15.706977 	 23.338651 	 C 	 1  ala 	 1.000000 
1744 	 C 	 19.205991 	 15.542846 	 23.764826 	 C 	 1  ala 	 1.000000 
1745 	 C 	 18.271019 	 15.840293 	 23.571559 	 C 	 1  ala 	 1.000000 
1746 	 C 	 18.354522 	 16.704305 	 23.075062 	 C 	 1  ala 	 1.000000 
1747 	 C 	 19.144076 	 16.751242 	 22.463178 	 C 	 1  ala 	 1.000000 
1748 	 C 	 19.211627 	 17.303464 	 23.294134 	 C 	 1  ala 	 1.000000 
1749 	 C 	 20.095596 	 17.332716 	 23.760764 	 C 	 1  ala 	 1.000000 
1750 	 C 	 19.516492 	 16.965096 	 23.033100 	 C 	 1  ala 	 1.000000 
1751 	 C 	 20.344189 	 17.426341 	 23.352742 	 C 	 1  ala 	 1.000000 
1752 	 C 	 20.368420 	 18.339874 	 22.946700 	 C 	 1  ala 	 1.000000 
1753 	 C 	 19.958924 	 17.808699 	 22.204968 	 C 	 1  ala 	 1.000000 
1754 	 C 	 19.958952 	 17.869150 	 21.206797 	 C 	 1  ala 	 1.000000 
1755 	 C 	 20.693133 	 18.458841 	 21.543313 	 C 	 1  ala 	 1.000000 
1756 	 C 	 20.270260 	 17.657017 	 21.121109 	 C 	 1  ala 	 1.000000 
1757 	 C 	 20.442472 	 18.606156 	 21.384695 	 C 	 1  ala 	 1.000000 
1758 	 C 	 20.882493 	 18.171490 	 20.598917 	 C 	 1  ala 	 1.000000 
1759 	 C 	 21.284530 	 17.545689 	 21.267303 	 C 	 1  ala 	 1.000000 
1760 	 C 	 21.522834 	 16.577045 	 21.197005 	 C 	 1  ala 	 1.000000 
1761 	 C 	 22.512808 	 16.630571 	 21.327719 	 C 	 1  ala 	 1.000000 
1762 	 C 	 22.375853 	 16.018578 	 20.548804 	 C 	 1  ala 	 1.000000 
1763 	 C 	 21.937344 	 15.705394 	 21.391197 	 C 	 1  ala 	 1.000000 
1764 	 C 	 21.223100 	 15.107522 	 21.027324 	 C 	 1  ala 	 1.000000 
1765 	 C 	 21.501652 	 16.067904 	 21.035897 	 C 	 1  ala 	 1.000000 
1766 	 C 	 21.490656 	 16.525569 	 20.146840 	 C 	 1  ala 	 1.000000 
1767 	 C 	 22.201812 	 17.215804 	 20.280382 	 C 	 1  ala 	 1.000000 
1768 	 C 	 21.291435 	 17.039889 	 20.654906 	 C 	 1  ala 	 1.000000 
1769 	 C 	 20.742444 	 16.963617 	 21.487247 	 C 	 1  ala 	 1.000000 
1770 	 C 	 21.520004 	 16.978307 	 22.115884 	 C 	 1  ala 	 1.000000 
1771 	 C 	 22.451595 	 17.309579 	 21.966224 	 C 	 1  ala 	 1.000000 
1772 	 C 	 21.454793 	 17.335844 	 21.890740 	 C 	 1  ala 	 1.000000 
1773 	 C 	 20.515548 	 17.070278 	 21.673271 	 C 	 1  ala 	 1.000000 
1774 	 C 	 19.654708 	 17.109792 	 22.180609 	 C 	 1  ala 	 1.000000 
1775 	 C 	 19.128021 	 16.792513 	 21.391981 	 C 	 1  ala 	 1.000000 
1776 	 C 	 19.273074 	 17.320795 	 20.555394 	 C 	 1  ala 	 1.000000 
1777 	 C 	 20.214758 	 17.098508 	 20.302766 	 C 	 1  ala 	 1.000000 
1778 	 C 	 21.109482 	 16.988613 	 20.735654 	 C 	 1  ala 	 1.000000 
1779 	 C 	 21.831191 	 17.035812 	 21.426239 	 C 	 1  ala 	 1.000000 
1780 	 C 	 22.560693 	 16.904466 	 22.097489 	 C 	 1  ala 	 1.000000 
1781 	 C 	 22.569070 	 17.629561 	 21.408891 	 C 	 1  ala 	 1.000000 
1782 	 C 	 22.322806 	 18.537768 	 21.747290 	 C 	 1  ala 	 1.000000 
1783 	 C 	 21.806240 	 18.214649 	 20.954351 	 C 	 1  ala 	 1.000000 
1784 	 C 	 21.344658 	 17.373888 	 21.237306 	 C 	 1  ala 	 1.000000 
1785 	 C 	 20.665452 	 16.696573 	 21.520012 	 C 	 1  ala 	 1.000000 
1786 	 C 	 20.026901 	 17.060488 	 20.841913 	 C 	 1  ala 	 1.000000 
1787 	 C 	 20.566591 	 17.768435 	 20.386342 	 C 	 1  ala 	 1.000000 
1788 	 C 	 21.148059 	 18.037773 	 19.618649 	 C 	 1  ala 	 1.000000 
1789 	 C 	 21.422190 	 18.372252 	 20.520301 	 C 	 1  ala 	 1.000000 
1790 	 C 	 21.231252 	 17.392683 	 20.583452 	 C 	 1  ala 	 1.000000 
1791 	 C 	 22.171172 	 17.092460 	 20.420918 	 C 	 1  ala 	 1.000000 
1792 	 C 	 21.596219 	 17.517341 	 19.721699 	 C 	 1  ala 	 1.000000 
1793 	 C 	 21.023974 	 18.290611 	 19.448591 	 C 	 1  ala 	 1.000000 
1794 	 C 	 20.674617 	 19.097686 	 18.972586 	 C 	 1  ala 	 1.000000 
1795 	 C 	 20.651161 	 19.996436 	 18.534754 	 C 	 1  ala 	 1.000000 
1796 	 C 	 20.917171 	 19.054033 	 18.331988 	 C 	 1  ala 	 1.000000 
1797 	 C 	 21.490342 	 19.830569 	 18.070327 	 C 	 1  ala 	 1.000000 
1798 	 C 	 22.249062 	 19.219864 	 18.297008 	 C 	 1  ala 	 1.000000 
1799 	 C 	 21.338746 	 18.834977 	 18.144737 	 C 	 1  ala 	 1.000000 
1800 	 C 	 20.985556 	 17.900272 	 18.104956 	 C 	 1  ala 	 1.000000 
1801 	 C 	 21.893379 	 17.481834 	 18.132668 	 C 	 1  ala 	 1.000000 
1802 	 C 	 22.513388 	 16.734411 	 18.371306 	 C 	 1  ala 	 1.000000 
1803 	 C 	 21.793505 	 16.054320 	 18.232578 	 C 	 1  ala 	 1.000000 
1804 	 C 	 21.919534 	 15.955903 	 17.245446 	 C 	 1  ala 	 1.000000 
1805 	 C 	 21.117583 	 15.529110 	 16.827446 	 C 	 1  ala 	 1.000000 
1806 	 C 	 21.153014 	 16.153471 	 17.607778 	 C 	 1  ala 	 1.000000 
1807 	 C 	 22.152053 	 16.159167 	 17.564339 	 C 	 1  ala 	 1.000000 
1808 	 C 	 23.041317 	 16.351250 	 17.979447 	 C 	 1  ala 	 1.000000 
1809 	 C 	 22.124408 	 16.744959 	 18.044792 	 C 	 1  ala 	 1.000000 
1810 	 C 	 21.470275 	 16.602768 	 17.301897 	 C 	 1  ala 	 1.000000 
1811 	 C 	 21.432640 	 17.348058 	 17.967574 	 C 	 1  ala 	 1.000000 
1812 	 C 	 20.580633 	 16.842212 	 18.102496 	 C 	 1  ala 	 1.000000 
1813 	 C 	 21.157685 	 17.268237 	 18.799285 	 C 	 1  ala 	 1.000000 
1814 	 C 	 20.998863 	 17.699879 	 17.911331 	 C 	 1  ala 	 1.000000 
1815 	 C 	 21.562862 	 18.522850 	 17.843335 	 C 	 1  ala 	 1.000000 
1816 	 C 	 20.915129 	 18.486151 	 18.604319 	 C 	 1  ala 	 1.000000 
1817 	 C 	 20.105410 	 17.983614 	 18.301312 	 C 	 1  ala 	 1.000000 
1818 	 C 	 20.169231 	 17.031077 	 18.598971 	 C 	 1  ala 	 1.000000 
1819 	 C 	 19.412621 	 16.422722 	 18.838648 	 C 	 1  ala 	 1.000000 
1820 	 C 	 19.852750 	 16.114563 	 17.995247 	 C 	 1  ala 	 1.000000 
1821 	 C 	 20.761173 	 16.453610 	 18.239818 	 C 	 1  ala 	 1.000000 
1822 	 C 	 21.418495 	 16.355628 	 18.987031 	 C 	 1  ala 	 1.000000 
1823 	 C 	 21.127457 	 16.640481 	 19.900352 	 C 	 1  ala 	 1.000000 
1824 	 C 	 20.848557 	 16.879366 	 18.970218 	 C 	 1  ala 	 1.000000 
1825 	 C 	 20.818753 	 16.977667 	 17.975507 	 C 	 1  ala 	 1.000000 
1826 	 C 	 20.515666 	 17.897358 	 18.225120 	 C 	 1  ala 	 1.000000 
1827 	 C 	 20.481819 	 16.981512 	 17.825019 	 C 	 1  ala 	 1.000000 
1828 	 C 	 20.308713 	 17.366296 	 16.918390 	 C 	 1  ala 	 1.000000 
1829 	 C 	 20.063541 	 17.026359 	 16.010461 	 C 	 1  ala 	 1.000000 
1830 	 C 	 20.417519 	 17.740262 	 16.614649 	 C 	 1  ala 	 1.000000 
1831 	 C 	 20.908183 	 17.404635 	 17.418766 	 C 	 1  ala 	 1.000000 
1832 	 C 	 20.776637 	 16.423869 	 17.562968 	 C 	 1  ala 	 1.000000 
1833 	 C 	 20.183631 	 17.225286 	 17.640912 	 C 	 1  ala 	 1.000000 
1834 	 C 	 20.025609 	 18.024971 	 18.220164 	 C 	 1  ala 	 1.000000 
1835 	 C 	 20.251393 	 17.905304 	 19.186963 	 C 	 1  ala 	 1.000000 
1836 	 C 	 21.007494 	 18.555620 	 19.260449 	 C 	 1  ala 	 1.000000 
1837 	 C 	 21.990758 	 18.636086 	 19.423899 	 C 	 1  ala 	 1.000000 
1838 	 C 	 21.693407 	 19.547608 	 19.707995 	 C 	 1  ala 	 1.000000 
1839 	 C 	 21.246644 	 20.337785 	 19.288443 	 C 	 1  ala 	 1.000000 
1840 	 C 	 20.973602 	 19.511397 	 19.780917 	 C 	 1  ala 	 1.000000 
1841 	 C 	 20.100193 	 19.883989 	 19.467338 	 C 	 1  ala 	 1.000000 
1842 	 C 	 19.287975 	 19.464183 	 19.062290 	 C 	 1  ala 	 1.000000 
1843 	 C 	 19.619015 	 19.365873 	 18.123808 	 C 	 1  ala 	 1.000000 
1844 	 C 	 19.794552 	 19.368292 	 17.139339 	 C 	 1  ala 	 1.000000 
1845 	 C 	 19.141969 	 19.474074 	 17.889636 	 C 	 1  ala 	 1.000000 
1846 	 C 	 19.661890 	 19.533060 	 18.741811 	 C 	 1  ala 	 1.000000 
1847 	 C 	 19.877085 	 18.946127 	 17.961298 	 C 	 1  ala 	 1.000000 
1848 	 C 	 20.572060 	 19.649854 	 17.813726 	 C 	 1  ala 	 1.000000 
1849 	 C 	 20.423695 	 19.794821 	 16.835476 	 C 	 1  ala 	 1.000000 
1850 	 C 	 20.725286 	 20.077762 	 15.924989 	 C 	 1  ala 	 1.000000 
1851 	 C 	 20.842045 	 20.587181 	 16.777549 	 C 	 1  ala 	 1.000000 
1852 	 C 	 20.907330 	 19.613045 	 16.993876 	 C 	 1  ala 	 1.000000 
1853 	 C 	 21.204142 	 20.517858 	 16.688562 	 C 	 1  ala 	 1.000000 
1854 	 C 	 21.729512 	 21.032328 	 17.366285 	 C 	 1  ala 	 1.000000 
1855 	 C 	 22.610906 	 21.321160 	 17.740075 	 C 	 1  ala 	 1.000000 
1856 	 C 	 22.925504 	 21.015143 	 18.638620 	 C 	 1  ala 	 1.000000 
1857 	 C 	 22.080950 	 21.518610 	 18.820967 	 C 	 1  ala 	 1.000000 
1858 	 C 	 22.803333 	 21.318686 	 19.482928 	 C 	 1  ala 	 1.000000 
1859 	 C 	 23.282343 	 21.847411 	 18.782214 	 C 	 1  ala 	 1.000000 
1860 	 C 	 23.209940 	 22.801970 	 19.071305 	 C 	 1  ala 	 1.000000 
1861 	 C 	 23.583166 	 23.039385 	 19.968153 	 C 	 1  ala 	 1.000000 
1862 	 C 	 24.232486 	 23.273978 	 19.244723 	 C 	 1  ala 	 1.000000 
1863 	 C 	 23.355802 	 23.668128 	 19.520533 	 C 	 1  ala 	 1.000000 
1864 	 C 	 23.276299 	 22.903071 	 18.881496 	 C 	 1  ala 	 1.000000 
1865 	 C 	 23.998623 	 23.561189 	 19.093934 	 C 	 1  ala 	 1.000000 
1866 	 C 	 24.929121 	 23.677954 	 18.746746 	 C 	 1  ala 	 1.000000 
1867 	 C 	 25.390002 	 24.523394 	 18.476895 	 C 	 1  ala 	 1.000000 
1868 	 C 	 25.163274 	 23.572117 	 18.267927 	 C 	 1  ala 	 1.000000 
1869 	 C 	 25.976403 	 24.117084 	 18.472457 	 C 	 1  ala 	 1.000000 
1870 	 C 	 25.415585 	 24.169054 	 19.298763 	 C 	 1  ala 	 1.000000 
1871 	 C 	 24.954580 	 23.557840 	 18.655419 	 C 	 1  ala 	 1.000000 
1872 	 C 	 25.513536 	 23.883061 	 19.418177 	 C 	 1  ala 	 1.000000 
1873 	 C 	 25.770124 	 24.786188 	 19.762452 	 C 	 1  ala 	 1.000000 
1874 	 C 	 26.123305 	 24.867409 	 18.830430 	 C 	 1  ala 	 1.000000 
1875 	 C 	 26.562457 	 24.081270 	 18.395537 	 C 	 1  ala 	 1.000000 
1876 	 C 	 27.507584 	 24.310814 	 18.628013 	 C 	 1  ala 	 1.000000 
1877 	 C 	 28.235509 	 24.857211 	 18.213797 	 C 	 1  ala 	 1.000000 
1878 	 C 	 28.020485 	 24.223447 	 18.956836 	 C 	 1  ala 	 1.000000 
1879 	 C 	 28.282345 	 23.856458 	 18.064229 	 C 	 1  ala 	 1.000000 
1880 	 C 	 28.231489 	 23.166359 	 18.786155 	 C 	 1  ala 	 1.000000 
1881 	 C 	 28.915357 	 23.884660 	 18.658217 	 C 	 1  ala 	 1.000000 
1882 	 C 	 29.490357 	 23.179396 	 19.072918 	 C 	 1  ala 	 1.000000 
1883 	 C 	 28.549246 	 23.271853 	 19.398128 	 C 	 1  ala 	 1.000000 
1884 	 C 	 28.437098 	 23.933131 	 20.139839 	 C 	 1  ala 	 1.000000 
1885 	 C 	 27.796645 	 23.612276 	 20.837601 	 C 	 1  ala 	 1.000000 
1886 	 C 	 28.707084 	 23.741756 	 20.444743 	 C 	 1  ala 	 1.000000 
1887 	 C 	 27.956303 	 23.243670 	 20.010878 	 C 	 1  ala 	 1.000000 
1888 	 C 	 28.570467 	 22.726229 	 20.606744 	 C 	 1  ala 	 1.000000 
1889 	 C 	 29.512387 	 22.506581 	 20.352695 	 C 	 1  ala 	 1.000000 
1890 	 C 	 29.409602 	 23.501066 	 20.331883 	 C 	 1  ala 	 1.000000 
1891 	 C 	 28.562895 	 23.012006 	 20.122346 	 C 	 1  ala 	 1.000000 
1892 	 C 	 27.964584 	 23.197450 	 20.901855 	 C 	 1  ala 	 1.000000 
1893 	 C 	 27.104006 	 23.650910 	 20.669948 	 C 	 1  ala 	 1.000000 
1894 	 C 	 27.311645 	 23.171940 	 19.817027 	 C 	 1  ala 	 1.000000 
1895 	 C 	 27.672609 	 24.093991 	 19.677284 	 C 	 1  ala 	 1.000000 
1896 	 C 	 27.366631 	 23.450249 	 18.975876 	 C 	 1  ala 	 1.000000 
1897 	 C 	 28.148633 	 23.609679 	 19.578416 	 C 	 1  ala 	 1.000000 
1898 	 C 	 28.949139 	 24.089585 	 19.937416 	 C 	 1  ala 	 1.000000 
1899 	 C 	 27.969933 	 24.281147 	 20.004202 	 C 	 1  ala 	 1.000000 
1900 	 C 	 28.631084 	 24.295055 	 19.254077 	 C 	 1  ala 	 1.000000 
1901 	 C 	 29.462593 	 24.720181 	 19.611653 	 C 	 1  ala 	 1.000000 
1902 	 C 	 28.645941 	 25.232959 	 19.346819 	 C 	 1  ala 	 1.000000 
1903 	 C 	 28.902203 	 25.918424 	 20.028338 	 C 	 1  ala 	 1.000000 
1904 	 C 	 29.469714 	 26.181666 	 20.808488 	 C 	 1  ala 	 1.000000 
1905 	 C 	 30.265011 	 26.715475 	 20.521170 	 C 	 1  ala 	 1.000000 
1906 	 C 	 29.710663 	 27.496886 	 20.807693 	 C 	 1  ala 	 1.000000 
1907 	 C 	 29.211414 	 27.091734 	 21.573592 	 C 	 1  ala 	 1.000000 
1908 	 C 	 29.996260 	 27.055860 	 20.954941 	 C 	 1  ala 	 1.000000 
1909 	 C 	 29.897801 	 26.589568 	 20.075807 	 C 	 1  ala 	 1.000000 
1910 	 C 	 30.779354 	 27.061385 	 20.091693 	 C 	 1  ala 	 1.000000 
1911 	 C 	 30.289563 	 27.928686 	 20.002845 	 C 	 1  ala 	 1.000000 
1912 	 C 	 31.019927 	 27.441529 	 20.481642 	 C 	 1  ala 	 1.000000 
1913 	 C 	 30.114911 	 27.745920 	 20.184504 	 C 	 1  ala 	 1.000000 
1914 	 C 	 30.539793 	 28.635061 	 20.354515 	 C 	 1  ala 	 1.000000 
1915 	 C 	 30.692602 	 28.921385 	 19.408646 	 C 	 1  ala 	 1.000000 
1916 	 C 	 30.413309 	 29.815247 	 19.759369 	 C 	 1  ala 	 1.000000 
1917 	 C 	 30.670612 	 30.548136 	 20.389185 	 C 	 1  ala 	 1.000000 
1918 	 C 	 31.225042 	 30.279571 	 21.176891 	 C 	 1  ala 	 1.000000 
1919 	 C 	 31.967462 	 29.645914 	 21.394358 	 C 	 1  ala 	 1.000000 
1920 	 C 	 31.817812 	 30.345981 	 20.696137 	 C 	 1  ala 	 1.000000 
1921 	 C 	 31.068111 	 29.800267 	 21.070496 	 C 	 1  ala 	 1.000000 
1922 	 C 	 31.080763 	 30.619235 	 20.496797 	 C 	 1  ala 	 1.000000 
1923 	 C 	 31.180777 	 29.646359 	 20.705387 	 C 	 1  ala 	 1.000000 
1924 	 C 	 30.412271 	 30.115102 	 20.269867 	 C 	 1  ala 	 1.000000 
1925 	 C 	 30.891093 	 30.848286 	 20.752744 	 C 	 1  ala 	 1.000000 
1926 	 C 	 30.730746 	 29.868197 	 20.635642 	 C 	 1  ala 	 1.000000 
1927 	 C 	 30.500645 	 29.450188 	 21.514461 	 C 	 1  ala 	 1.000000 
1928 	 C 	 29.736734 	 29.918976 	 21.070979 	 C 	 1  ala 	 1.000000 
1929 	 C 	 29.495845 	 28.952336 	 21.158036 	 C 	 1  ala 	 1.000000 
1930 	 C 	 29.131819 	 29.624403 	 21.802870 	 C 	 1  ala 	 1.000000 
1931 	 C 	 29.691262 	 29.294876 	 21.042321 	 C 	 1  ala 	 1.000000 
1932 	 C 	 29.207141 	 29.389447 	 20.172445 	 C 	 1  ala 	 1.000000 
1933 	 C 	 30.041379 	 29.939389 	 20.132327 	 C 	 1  ala 	 1.000000 
1934 	 C 	 29.713285 	 30.280209 	 21.013347 	 C 	 1  ala 	 1.000000 
1935 	 C 	 30.315285 	 30.482192 	 20.240819 	 C 	 1  ala 	 1.000000 
1936 	 C 	 29.403527 	 30.574014 	 20.641153 	 C 	 1  ala 	 1.000000 
1937 	 C 	 28.645413 	 30.462224 	 19.998685 	 C 	 1  ala 	 1.000000 
1938 	 C 	 29.193157 	 31.018560 	 20.623558 	 C 	 1  ala 	 1.000000 
1939 	 C 	 29.890654 	 30.306511 	 20.543033 	 C 	 1  ala 	 1.000000 
1940 	 C 	 30.313698 	 31.211640 	 20.500888 	 C 	 1  ala 	 1.000000 
1941 	 C 	 30.839592 	 30.572180 	 21.061714 	 C 	 1  ala 	 1.000000 
1942 	 C 	 30.332460 	 29.817057 	 21.477175 	 C 	 1  ala 	 1.000000 
1943 	 C 	 29.852525 	 28.963296 	 21.679051 	 C 	 1  ala 	 1.000000 
1944 	 C 	 29.099010 	 28.605194 	 22.230394 	 C 	 1  ala 	 1.000000 
1945 	 C 	 28.534017 	 29.210706 	 22.790875 	 C 	 1  ala 	 1.000000 
1946 	 C 	 28.352809 	 29.403644 	 21.826542 	 C 	 1  ala 	 1.000000 
1947 	 C 	 28.365201 	 29.948697 	 20.988232 	 C 	 1  ala 	 1.000000 
1948 	 C 	 27.809832 	 29.343189 	 20.418209 	 C 	 1  ala 	 1.000000 
1949 	 C 	 28.121185 	 29.552833 	 21.345091 	 C 	 1  ala 	 1.000000 
1950 	 C 	 27.396585 	 28.884069 	 21.178629 	 C 	 1  ala 	 1.000000 
1951 	 C 	 28.280641 	 29.350256 	 21.212011 	 C 	 1  ala 	 1.000000 
1952 	 C 	 27.731559 	 29.384467 	 22.047079 	 C 	 1  ala 	 1.000000 
1953 	 C 	 28.193040 	 30.266523 	 21.952136 	 C 	 1  ala 	 1.000000 
1954 	 C 	 28.127554 	 31.250899 	 22.115580 	 C 	 1  ala 	 1.000000 
1955 	 C 	 27.405468 	 31.328292 	 22.803040 	 C 	 1  ala 	 1.000000 
1956 	 C 	 26.518510 	 31.762121 	 22.961461 	 C 	 1  ala 	 1.000000 
1957 	 C 	 26.968190 	 30.971741 	 22.545426 	 C 	 1  ala 	 1.000000 
1958 	 C 	 25.981584 	 30.852277 	 22.656499 	 C 	 1  ala 	 1.000000 
1959 	 C 	 25.009711 	 31.029080 	 22.500922 	 C 	 1  ala 	 1.000000 
1960 	 C 	 25.624686 	 31.316172 	 23.235350 	 C 	 1  ala 	 1.000000 
1961 	 C 	 25.374843 	 30.791425 	 24.049118 	 C 	 1  ala 	 1.000000 
1962 	 C 	 25.822619 	 29.903018 	 23.947971 	 C 	 1  ala 	 1.000000 
1963 	 C 	 26.122134 	 29.016726 	 23.594733 	 C 	 1  ala 	 1.000000 
1964 	 C 	 26.536197 	 29.897201 	 23.363832 	 C 	 1  ala 	 1.000000 
1965 	 C 	 26.323306 	 29.103791 	 23.934075 	 C 	 1  ala 	 1.000000 
1966 	 C 	 25.927444 	 28.739192 	 23.091246 	 C 	 1  ala 	 1.000000 
1967 	 C 	 25.409956 	 27.884186 	 23.125490 	 C 	 1  ala 	 1.000000 
1968 	 C 	 24.988588 	 28.785286 	 23.023175 	 C 	 1  ala 	 1.000000 
1969 	 C 	 24.624136 	 28.474923 	 22.145194 	 C 	 1  ala 	 1.000000 
1970 	 C 	 24.570179 	 29.468533 	 22.244331 	 C 	 1  ala 	 1.000000 
1971 	 C 	 23.732137 	 29.523368 	 21.701489 	 C 	 1  ala 	 1.000000 
1972 	 C 	 24.011419 	 29.881307 	 20.810489 	 C 	 1  ala 	 1.000000 
1973 	 C 	 23.564123 	 30.414432 	 21.528615 	 C 	 1  ala 	 1.000000 
1974 	 C 	 23.972985 	 29.891798 	 22.276736 	 C 	 1  ala 	 1.000000 
1975 	 C 	 22.993587 	 29.848679 	 22.474016 	 C 	 1  ala 	 1.000000 
1976 	 C 	 22.333602 	 29.117784 	 22.647836 	 C 	 1  ala 	 1.000000 
1977 	 C 	 23.051926 	 29.587107 	 23.161398 	 C 	 1  ala 	 1.000000 
1978 	 C 	 23.334239 	 29.695751 	 22.208248 	 C 	 1  ala 	 1.000000 
1979 	 C 	 23.191078 	 29.290073 	 21.305513 	 C 	 1  ala 	 1.000000 
1980 	 C 	 23.576764 	 29.620926 	 20.444246 	 C 	 1  ala 	 1.000000 
1981 	 C 	 23.465531 	 28.641600 	 20.613209 	 C 	 1  ala 	 1.000000 
1982 	 C 	 22.720259 	 28.389059 	 19.996124 	 C 	 1  ala 	 1.000000 
1983 	 C 	 23.675790 	 28.528888 	 19.736490 	 C 	 1  ala 	 1.000000 
1984 	 C 	 22.930107 	 27.921129 	 19.463384 	 C 	 1  ala 	 1.000000 
1985 	 C 	 23.236654 	 26.981226 	 19.613759 	 C 	 1  ala 	 1.000000 
1986 	 C 	 23.148207 	 27.270240 	 20.566989 	 C 	 1  ala 	 1.000000 
1987 	 C 	 22.962797 	 28.106215 	 21.083485 	 C 	 1  ala 	 1.000000 
1988 	 C 	 23.420272 	 28.815552 	 21.619730 	 C 	 1  ala 	 1.000000 
1989 	 C 	 22.852526 	 29.202086 	 20.892918 	 C 	 1  ala 	 1.000000 
1990 	 C 	 23.425575 	 28.979108 	 21.681522 	 C 	 1  ala 	 1.000000 
1991 	 C 	 23.273575 	 29.333862 	 20.759000 	 C 	 1  ala 	 1.000000 
1992 	 C 	 22.376059 	 29.673239 	 20.477421 	 C 	 1  ala 	 1.000000 
1993 	 C 	 21.524435 	 29.388920 	 20.037080 	 C 	 1  ala 	 1.000000 
1994 	 C 	 21.903867 	 30.120586 	 20.603380 	 C 	 1  ala 	 1.000000 
1995 	 C 	 21.633718 	 30.615981 	 19.777788 	 C 	 1  ala 	 1.000000 
1996 	 C 	 21.193910 	 30.230374 	 20.588883 	 C 	 1  ala 	 1.000000 
1997 	 C 	 22.057438 	 30.498900 	 21.015746 	 C 	 1  ala 	 1.000000 
1998 	 C 	 23.043452 	 30.334582 	 20.987885 	 C 	 1  ala 	 1.000000 
1999 	 C 	 24.026062 	 30.443749 	 21.138082 	 C 	 1  ala 	 1.000000 
2000 	 C 	 24.063418 	 30.351450 	 20.143052 	 C 	 1  ala 	 1.000000 
2001 	 C 	 23.656883 	 30.144198 	 21.032870 	 C 	 1  ala 	 1.000000 
2002 	 C 	 23.278957 	 29.413544 	 20.464259 	 C 	 1  ala 	 1.000000 
2003 	 C 	 23.593316 	 28.625667 	 19.934705 	 C 	 1  ala 	 1.000000 
2004 	 C 	 23.946432 	 27.873444 	 20.491004 	 C 	 1  ala 	 1.000000 
2005 	 C 	 24.413642 	 27.069532 	 20.122982 	 C 	 1  ala 	 1.000000 
2006 	 C 	 24.328014 	 26.138016 	 20.476460 	 C 	 1  ala 	 1.000000 
2007 	 C 	 23.922500 	 26.718994 	 19.770752 	 C 	 1  ala 	 1.000000 
2008 	 C 	 23.919580 	 25.759920 	 19.487612 	 C 	 1  ala 	 1.000000 
2009 	 C 	 24.622085 	 25.135387 	 19.828854 	 C 	 1  ala 	 1.000000 
2010 	 C 	 25.093472 	 24.990047 	 18.958986 	 C 	 1  ala 	 1.000000 
2011 	 C 	 25.901286 	 24.427793 	 19.135924 	 C 	 1  ala 	 1.000000 
2012 	 C 	 26.825628 	 24.565744 	 19.491679 	 C 	 1  ala 	 1.000000 
2013 	 C 	 27.561072 	 24.097505 	 19.981448 	 C 	 1  ala 	 1.000000 
2014 	 C 	 27.384434 	 24.582575 	 20.837897 	 C 	 1  ala 	 1.000000 
2015 	 C 	 27.904246 	 23.728819 	 20.807932 	 C 	 1  ala 	 1.000000 
2016 	 C 	 26.913143 	 23.600965 	 20.844924 	 C 	 1  ala 	 1.000000 
2017 	 C 	 26.412041 	 23.829211 	 21.679670 	 C 	 1  ala 	 1.000000 
2018 	 C 	 27.157719 	 24.495439 	 21.669411 	 C 	 1  ala 	 1.000000 
2019 	 C 	 27.428506 	 23.577667 	 21.378946 	 C 	 1  ala 	 1.000000 
2020 	 C 	 27.993974 	 23.618944 	 20.555210 	 C 	 1  ala 	 1.000000 
2021 	 C 	 28.221701 	 22.671413 	 20.330879 	 C 	 1  ala 	 1.000000 
2022 	 C 	 28.145192 	 21.736179 	 19.985215 	 C 	 1  ala 	 1.000000 
2023 	 C 	 28.726672 	 22.438237 	 19.574125 	 C 	 1  ala 	 1.000000 
2024 	 C 	 29.058246 	 23.140015 	 20.204653 	 C 	 1  ala 	 1.000000 
2025 	 C 	 29.955038 	 22.804120 	 19.916660 	 C 	 1  ala 	 1.000000 
2026 	 C 	 30.885537 	 22.445767 	 19.840808 	 C 	 1  ala 	 1.000000 
2027 	 C 	 31.570993 	 21.800772 	 20.178642 	 C 	 1  ala 	 1.000000 
2028 	 C 	 31.848968 	 21.306857 	 19.354761 	 C 	 1  ala 	 1.000000 
2029 	 C 	 31.868807 	 20.313736 	 19.239366 	 C 	 1  ala 	 1.000000 
2030 	 C 	 31.326663 	 19.858971 	 18.532776 	 C 	 1  ala 	 1.000000 
2031 	 C 	 31.268920 	 20.104186 	 19.500524 	 C 	 1  ala 	 1.000000 
2032 	 C 	 30.890733 	 19.816000 	 18.620794 	 C 	 1  ala 	 1.000000 
2033 	 C 	 30.282101 	 19.028653 	 18.719045 	 C 	 1  ala 	 1.000000 
2034 	 C 	 31.144973 	 19.237588 	 18.258828 	 C 	 1  ala 	 1.000000 
2035 	 C 	 30.507821 	 18.914206 	 17.559213 	 C 	 1  ala 	 1.000000 
2036 	 C 	 30.588671 	 19.223583 	 18.506709 	 C 	 1  ala 	 1.000000 
2037 	 C 	 29.782359 	 18.656453 	 18.338709 	 C 	 1  ala 	 1.000000 
2038 	 C 	 29.660465 	 19.621062 	 18.572530 	 C 	 1  ala 	 1.000000 
2039 	 C 	 29.189536 	 19.485768 	 17.700796 	 C 	 1  ala 	 1.000000 
2040 	 C 	 29.991173 	 19.173458 	 17.191050 	 C 	 1  ala 	 1.000000 
2041 	 C 	 30.377410 	 20.055287 	 17.461605 	 C 	 1  ala 	 1.000000 
2042 	 C 	 30.562079 	 19.800893 	 16.512299 	 C 	 1  ala 	 1.000000 
2043 	 C 	 30.704788 	 19.604166 	 15.542283 	 C 	 1  ala 	 1.000000 
2044 	 C 	 30.071151 	 20.012587 	 14.885247 	 C 	 1  ala 	 1.000000 
2045 	 C 	 29.404804 	 20.541285 	 15.411041 	 C 	 1  ala 	 1.000000 
2046 	 C 	 29.678589 	 20.481003 	 16.370941 	 C 	 1  ala 	 1.000000 
2047 	 C 	 29.156294 	 20.378083 	 15.524409 	 C 	 1  ala 	 1.000000 
2048 	 C 	 29.229631 	 19.964761 	 14.616782 	 C 	 1  ala 	 1.000000 
2049 	 C 	 29.730775 	 20.632710 	 14.066602 	 C 	 1  ala 	 1.000000 
2050 	 C 	 29.010749 	 21.283460 	 13.825587 	 C 	 1  ala 	 1.000000 
2051 	 C 	 29.845247 	 21.354362 	 14.372018 	 C 	 1  ala 	 1.000000 
2052 	 C 	 30.288376 	 21.137956 	 15.241964 	 C 	 1  ala 	 1.000000 
2053 	 C 	 30.553270 	 20.703609 	 16.102878 	 C 	 1  ala 	 1.000000 
2054 	 C 	 30.355708 	 19.918821 	 16.690311 	 C 	 1  ala 	 1.000000 
2055 	 C 	 29.966642 	 19.163317 	 16.163204 	 C 	 1  ala 	 1.000000 
2056 	 C 	 30.374499 	 18.275429 	 16.376057 	 C 	 1  ala 	 1.000000 
2057 	 C 	 30.638059 	 18.789924 	 15.560073 	 C 	 1  ala 	 1.000000 
2058 	 C 	 31.513075 	 19.263866 	 15.461451 	 C 	 1  ala 	 1.000000 
2059 	 C 	 32.193996 	 18.541426 	 15.341335 	 C 	 1  ala 	 1.000000 
2060 	 C 	 31.789363 	 18.417035 	 16.247314 	 C 	 1  ala 	 1.000000 
2061 	 C 	 31.957357 	 18.050324 	 15.332273 	 C 	 1  ala 	 1.000000 
2062 	 C 	 32.401992 	 17.155099 	 15.302760 	 C 	 1  ala 	 1.000000 
2063 	 C 	 32.337427 	 17.189853 	 16.300068 	 C 	 1  ala 	 1.000000 
2064 	 C 	 31.877238 	 16.448422 	 16.788440 	 C 	 1  ala 	 1.000000 
2065 	 C 	 30.881107 	 16.371506 	 16.830947 	 C 	 1  ala 	 1.000000 
2066 	 C 	 30.879514 	 15.433647 	 17.177958 	 C 	 1  ala 	 1.000000 
2067 	 C 	 30.260774 	 16.058472 	 16.701772 	 C 	 1  ala 	 1.000000 
2068 	 C 	 29.692090 	 16.025638 	 15.879871 	 C 	 1  ala 	 1.000000 
2069 	 C 	 28.794272 	 15.904192 	 16.303160 	 C 	 1  ala 	 1.000000 
2070 	 C 	 27.794571 	 15.902236 	 16.278779 	 C 	 1  ala 	 1.000000 
2071 	 C 	 27.806470 	 15.443555 	 17.167301 	 C 	 1  ala 	 1.000000 
2072 	 C 	 27.271287 	 14.635097 	 16.922405 	 C 	 1  ala 	 1.000000 
2073 	 C 	 27.649762 	 15.560528 	 16.940692 	 C 	 1  ala 	 1.000000 
2074 	 C 	 28.608558 	 15.360097 	 16.739355 	 C 	 1  ala 	 1.000000 
2075 	 C 	 29.081985 	 15.756368 	 17.526017 	 C 	 1  ala 	 1.000000 
2076 	 C 	 28.479216 	 16.532381 	 17.711688 	 C 	 1  ala 	 1.000000 
2077 	 C 	 28.276793 	 16.765926 	 18.662730 	 C 	 1  ala 	 1.000000 
2078 	 C 	 28.693494 	 17.192233 	 17.859847 	 C 	 1  ala 	 1.000000 
2079 	 C 	 28.321125 	 18.097959 	 18.062337 	 C 	 1  ala 	 1.000000 
2080 	 C 	 27.581172 	 17.469108 	 17.823556 	 C 	 1  ala 	 1.000000 
2081 	 C 	 27.731726 	 16.671263 	 18.407316 	 C 	 1  ala 	 1.000000 
2082 	 C 	 27.175413 	 15.859029 	 18.231842 	 C 	 1  ala 	 1.000000 
2083 	 C 	 27.370572 	 16.782061 	 18.563393 	 C 	 1  ala 	 1.000000 
2084 	 C 	 28.070625 	 16.649517 	 19.265075 	 C 	 1  ala 	 1.000000 
2085 	 C 	 27.583124 	 17.078000 	 20.025828 	 C 	 1  ala 	 1.000000 
2086 	 C 	 27.144304 	 17.343408 	 20.884313 	 C 	 1  ala 	 1.000000 
2087 	 C 	 26.305780 	 17.861589 	 21.052733 	 C 	 1  ala 	 1.000000 
2088 	 C 	 25.835324 	 18.100885 	 20.203376 	 C 	 1  ala 	 1.000000 
2089 	 C 	 26.588877 	 17.776211 	 20.774991 	 C 	 1  ala 	 1.000000 
2090 	 C 	 25.941911 	 17.529865 	 20.053362 	 C 	 1  ala 	 1.000000 
2091 	 C 	 26.410236 	 18.293373 	 20.498027 	 C 	 1  ala 	 1.000000 
2092 	 C 	 25.766985 	 17.898465 	 21.153981 	 C 	 1  ala 	 1.000000 
2093 	 C 	 26.501643 	 17.475006 	 21.684037 	 C 	 1  ala 	 1.000000 
2094 	 C 	 26.055286 	 17.502204 	 20.789595 	 C 	 1  ala 	 1.000000 
2095 	 C 	 25.622031 	 17.620102 	 19.896068 	 C 	 1  ala 	 1.000000 
2096 	 C 	 24.790095 	 17.065924 	 19.923789 	 C 	 1  ala 	 1.000000 
2097 	 C 	 23.968559 	 17.426888 	 20.365130 	 C 	 1  ala 	 1.000000 
2098 	 C 	 24.295920 	 17.278868 	 19.431897 	 C 	 1  ala 	 1.000000 
2099 	 C 	 23.543322 	 16.756664 	 19.030777 	 C 	 1  ala 	 1.000000 
2100 	 C 	 24.023923 	 17.195477 	 18.271523 	 C 	 1  ala 	 1.000000 
2101 	 C 	 24.852724 	 16.682399 	 18.494772 	 C 	 1  ala 	 1.000000 
2102 	 C 	 24.359516 	 16.625067 	 17.626752 	 C 	 1  ala 	 1.000000 
2103 	 C 	 25.314187 	 16.629934 	 17.924374 	 C 	 1  ala 	 1.000000 
2104 	 C 	 25.443455 	 16.161634 	 17.050312 	 C 	 1  ala 	 1.000000 
2105 	 C 	 25.940529 	 16.866899 	 17.555799 	 C 	 1  ala 	 1.000000 
2106 	 C 	 26.514197 	 16.048652 	 17.518688 	 C 	 1  ala 	 1.000000 
2107 	 C 	 26.401750 	 15.065360 	 17.375532 	 C 	 1  ala 	 1.000000 
2108 	 C 	 26.685003 	 15.481031 	 18.239815 	 C 	 1  ala 	 1.000000 
2109 	 C 	 25.782847 	 15.565650 	 17.816785 	 C 	 1  ala 	 1.000000 
2110 	 C 	 26.037958 	 15.296002 	 16.888233 	 C 	 1  ala 	 1.000000 
2111 	 C 	 25.560678 	 15.237797 	 17.765055 	 C 	 1  ala 	 1.000000 
2112 	 C 	 24.717723 	 15.739621 	 17.958961 	 C 	 1  ala 	 1.000000 
2113 	 C 	 24.774416 	 14.745948 	 17.862001 	 C 	 1  ala 	 1.000000 
2114 	 C 	 24.191780 	 15.558158 	 17.891171 	 C 	 1  ala 	 1.000000 
2115 	 C 	 23.238559 	 15.385911 	 17.642772 	 C 	 1  ala 	 1.000000 
2116 	 C 	 23.302350 	 14.390290 	 17.711113 	 C 	 1  ala 	 1.000000 
2117 	 C 	 22.916982 	 13.687838 	 18.309487 	 C 	 1  ala 	 1.000000 
2118 	 C 	 22.177255 	 13.529283 	 18.963448 	 C 	 1  ala 	 1.000000 
2119 	 C 	 22.427026 	 13.813590 	 19.889075 	 C 	 1  ala 	 1.000000 
2120 	 C 	 23.127364 	 13.516857 	 19.239863 	 C 	 1  ala 	 1.000000 
2121 	 C 	 24.021260 	 13.074508 	 19.312515 	 C 	 1  ala 	 1.000000 
2122 	 C 	 24.371429 	 12.533209 	 20.076961 	 C 	 1  ala 	 1.000000 
2123 	 C 	 25.219566 	 12.067182 	 20.328918 	 C 	 1  ala 	 1.000000 
2124 	 C 	 24.426882 	 12.204441 	 19.734939 	 C 	 1  ala 	 1.000000 
2125 	 C 	 24.056648 	 11.680652 	 20.502123 	 C 	 1  ala 	 1.000000 
2126 	 C 	 23.351386 	 12.109680 	 21.066517 	 C 	 1  ala 	 1.000000 
2127 	 C 	 23.923809 	 12.776248 	 20.589004 	 C 	 1  ala 	 1.000000 
2128 	 C 	 24.218498 	 13.364205 	 21.342306 	 C 	 1  ala 	 1.000000 
2129 	 C 	 24.740810 	 12.525962 	 21.185657 	 C 	 1  ala 	 1.000000 
2130 	 C 	 24.760704 	 11.966339 	 22.014165 	 C 	 1  ala 	 1.000000 
2131 	 C 	 23.906524 	 11.577815 	 21.668585 	 C 	 1  ala 	 1.000000 
2132 	 C 	 24.475273 	 12.149982 	 21.077696 	 C 	 1  ala 	 1.000000 
2133 	 C 	 23.701013 	 12.751680 	 20.881533 	 C 	 1  ala 	 1.000000 
2134 	 C 	 23.518433 	 13.726623 	 21.008625 	 C 	 1  ala 	 1.000000 
2135 	 C 	 24.387049 	 13.824500 	 20.522902 	 C 	 1  ala 	 1.000000 
2136 	 C 	 23.564464 	 13.670212 	 21.070213 	 C 	 1  ala 	 1.000000 
2137 	 C 	 23.011852 	 14.488961 	 21.226004 	 C 	 1  ala 	 1.000000 
2138 	 C 	 22.027058 	 14.489979 	 21.399727 	 C 	 1  ala 	 1.000000 
2139 	 C 	 22.034322 	 15.375628 	 20.935429 	 C 	 1  ala 	 1.000000 
2140 	 C 	 22.697822 	 14.719304 	 20.576255 	 C 	 1  ala 	 1.000000 
2141 	 C 	 23.684942 	 14.604213 	 20.687374 	 C 	 1  ala 	 1.000000 
2142 	 C 	 24.488581 	 15.118563 	 20.388028 	 C 	 1  ala 	 1.000000 
2143 	 C 	 24.588576 	 15.010423 	 19.398934 	 C 	 1  ala 	 1.000000 
2144 	 C 	 24.114444 	 15.695331 	 19.952197 	 C 	 1  ala 	 1.000000 
2145 	 C 	 23.929055 	 14.910947 	 19.360274 	 C 	 1  ala 	 1.000000 
2146 	 C 	 24.624574 	 14.521378 	 19.964003 	 C 	 1  ala 	 1.000000 
2147 	 C 	 24.011953 	 14.268543 	 20.712849 	 C 	 1  ala 	 1.000000 
2148 	 C 	 23.386225 	 15.005090 	 20.969685 	 C 	 1  ala 	 1.000000 
2149 	 C 	 22.773245 	 15.783714 	 20.835524 	 C 	 1  ala 	 1.000000 
2150 	 C 	 21.980693 	 15.367322 	 21.281035 	 C 	 1  ala 	 1.000000 
2151 	 C 	 22.823538 	 15.681869 	 20.844374 	 C 	 1  ala 	 1.000000 
2152 	 C 	 22.487812 	 16.388715 	 20.221753 	 C 	 1  ala 	 1.000000 
2153 	 C 	 22.493423 	 16.535061 	 19.232535 	 C 	 1  ala 	 1.000000 
2154 	 C 	 22.152765 	 16.813626 	 20.130507 	 C 	 1  ala 	 1.000000 
2155 	 C 	 22.200667 	 16.075407 	 20.803366 	 C 	 1  ala 	 1.000000 
2156 	 C 	 22.545809 	 16.265184 	 19.884202 	 C 	 1  ala 	 1.000000 
2157 	 C 	 21.642528 	 16.677635 	 19.766020 	 C 	 1  ala 	 1.000000 
2158 	 C 	 21.624632 	 15.798212 	 20.241723 	 C 	 1  ala 	 1.000000 
2159 	 C 	 21.394293 	 16.569274 	 19.648085 	 C 	 1  ala 	 1.000000 
2160 	 C 	 21.509925 	 17.083063 	 20.498174 	 C 	 1  ala 	 1.000000 
2161 	 C 	 21.965472 	 17.173831 	 19.612601 	 C 	 1  ala 	 1.000000 
2162 	 C 	 22.487363 	 16.834094 	 20.395038 	 C 	 1  ala 	 1.000000 
2163 	 C 	 21.827239 	 16.812488 	 21.145884 	 C 	 1  ala 	 1.000000 
2164 	 C 	 22.339828 	 16.171187 	 20.574933 	 C 	 1  ala 	 1.000000 
2165 	 C 	 21.610037 	 15.667108 	 21.036788 	 C 	 1  ala 	 1.000000 
2166 	 C 	 22.187114 	 16.023205 	 20.301821 	 C 	 1  ala 	 1.000000 
2167 	 C 	 22.390600 	 16.001794 	 21.280664 	 C 	 1  ala 	 1.000000 
2168 	 C 	 22.836279 	 15.264029 	 20.773641 	 C 	 1  ala 	 1.000000 
2169 	 C 	 22.176279 	 16.004000 	 20.643859 	 C 	 1  ala 	 1.000000 
2170 	 C 	 23.064536 	 16.150556 	 20.208518 	 C 	 1  ala 	 1.000000 
2171 	 C 	 23.800215 	 16.769460 	 19.933318 	 C 	 1  ala 	 1.000000 
2172 	 C 	 23.662171 	 16.312432 	 19.054643 	 C 	 1  ala 	 1.000000 
2173 	 C 	 23.133659 	 15.730828 	 19.673038 	 C 	 1  ala 	 1.000000 
2174 	 C 	 24.057819 	 15.845028 	 20.037573 	 C 	 1  ala 	 1.000000 
2175 	 C 	 24.703006 	 16.590597 	 20.204487 	 C 	 1  ala 	 1.000000 
2176 	 C 	 23.705044 	 16.618560 	 20.147136 	 C 	 1  ala 	 1.000000 
2177 	 C 	 24.123045 	 15.720855 	 20.286420 	 C 	 1  ala 	 1.000000 
2178 	 C 	 23.803256 	 16.599145 	 19.930973 	 C 	 1  ala 	 1.000000 
2179 	 C 	 24.035671 	 16.363096 	 18.987435 	 C 	 1  ala 	 1.000000 
2180 	 C 	 24.539655 	 16.837909 	 19.708928 	 C 	 1  ala 	 1.000000 
2181 	 C 	 24.215833 	 17.090430 	 20.620724 	 C 	 1  ala 	 1.000000 
2182 	 C 	 24.426314 	 16.429889 	 21.341407 	 C 	 1  ala 	 1.000000 
2183 	 C 	 24.189730 	 16.947605 	 22.163597 	 C 	 1  ala 	 1.000000 
2184 	 C 	 24.326693 	 17.235939 	 21.215914 	 C 	 1  ala 	 1.000000 
2185 	 C 	 24.359815 	 17.303907 	 22.213051 	 C 	 1  ala 	 1.000000 
2186 	 C 	 25.236074 	 17.300819 	 22.694883 	 C 	 1  ala 	 1.000000 
2187 	 C 	 26.040382 	 17.681850 	 23.150847 	 C 	 1  ala 	 1.000000 
2188 	 C 	 25.513635 	 18.431148 	 22.749487 	 C 	 1  ala 	 1.000000 
2189 	 C 	 25.495698 	 18.593305 	 21.762885 	 C 	 1  ala 	 1.000000 
2190 	 C 	 26.026998 	 17.799877 	 22.059857 	 C 	 1  ala 	 1.000000 
2191 	 C 	 25.805459 	 18.422723 	 21.309535 	 C 	 1  ala 	 1.000000 
2192 	 C 	 25.762409 	 19.013192 	 22.115446 	 C 	 1  ala 	 1.000000 
2193 	 C 	 25.880497 	 18.635517 	 21.197068 	 C 	 1  ala 	 1.000000 
2194 	 C 	 24.940146 	 18.804872 	 20.902011 	 C 	 1  ala 	 1.000000 
2195 	 C 	 24.535565 	 18.110996 	 21.497704 	 C 	 1  ala 	 1.000000 
2196 	 C 	 24.844479 	 17.161073 	 21.544804 	 C 	 1  ala 	 1.000000 
2197 	 C 	 24.552968 	 17.698639 	 22.336034 	 C 	 1  ala 	 1.000000 
2198 	 C 	 24.204779 	 17.121312 	 21.597482 	 C 	 1  ala 	 1.000000 
2199 	 C 	 23.859751 	 17.070016 	 20.660293 	 C 	 1  ala 	 1.000000 
2200 	 C 	 23.982809 	 17.371680 	 21.605732 	 C 	 1  ala 	 1.000000 
2201 	 C 	 23.559990 	 17.707187 	 22.447551 	 C 	 1  ala 	 1.000000 
2202 	 C 	 24.142659 	 17.133925 	 23.023629 	 C 	 1  ala 	 1.000000 
2203 	 C 	 24.845165 	 16.785511 	 23.644188 	 C 	 1  ala 	 1.000000 
2204 	 C 	 24.944596 	 17.076473 	 22.692634 	 C 	 1  ala 	 1.000000 
2205 	 C 	 24.620826 	 18.021411 	 22.645027 	 C 	 1  ala 	 1.000000 
2206 	 C 	 23.806886 	 18.461608 	 22.265912 	 C 	 1  ala 	 1.000000 
2207 	 C 	 23.963467 	 17.941879 	 23.105771 	 C 	 1  ala 	 1.000000 
2208 	 C 	 23.484462 	 18.451599 	 22.391110 	 C 	 1  ala 	 1.000000 
2209 	 C 	 23.631148 	 18.740574 	 21.445078 	 C 	 1  ala 	 1.000000 
2210 	 C 	 22.982470 	 18.848047 	 20.691642 	 C 	 1  ala 	 1.000000 
2211 	 C 	 22.371247 	 19.368353 	 21.288039 	 C 	 1  ala 	 1.000000 
2212 	 C 	 22.078390 	 19.965237 	 22.035009 	 C 	 1  ala 	 1.000000 
2213 	 C 	 21.981156 	 20.581779 	 22.816303 	 C 	 1  ala 	 1.000000 
2214 	 C 	 22.949442 	 20.532124 	 22.571442 	 C 	 1  ala 	 1.000000 
2215 	 C 	 23.590142 	 20.141925 	 23.232690 	 C 	 1  ala 	 1.000000 
2216 	 C 	 24.372303 	 20.112591 	 23.855076 	 C 	 1  ala 	 1.000000 
2217 	 C 	 25.027975 	 19.986365 	 23.110657 	 C 	 1  ala 	 1.000000 
2218 	 C 	 24.939230 	 20.159041 	 24.091629 	 C 	 1  ala 	 1.000000 
2219 	 C 	 25.443131 	 21.020886 	 24.034124 	 C 	 1  ala 	 1.000000 
2220 	 C 	 24.520213 	 20.759431 	 24.316726 	 C 	 1  ala 	 1.000000 
2221 	 C 	 24.122816 	 21.535094 	 24.807055 	 C 	 1  ala 	 1.000000 
2222 	 C 	 23.904212 	 21.699273 	 23.845152 	 C 	 1  ala 	 1.000000 
2223 	 C 	 24.181676 	 22.494941 	 23.306703 	 C 	 1  ala 	 1.000000 
2224 	 C 	 25.144930 	 22.380869 	 23.063537 	 C 	 1  ala 	 1.000000 
2225 	 C 	 25.174144 	 21.569629 	 22.479554 	 C 	 1  ala 	 1.000000 
2226 	 C 	 24.469075 	 22.064997 	 21.972121 	 C 	 1  ala 	 1.000000 
2227 	 C 	 24.664558 	 21.105324 	 21.770093 	 C 	 1  ala 	 1.000000 
2228 	 C 	 23.731998 	 21.256715 	 22.097830 	 C 	 1  ala 	 1.000000 
2229 	 C 	 24.144412 	 21.880463 	 21.433862 	 C 	 1  ala 	 1.000000 
2230 	 C 	 23.654692 	 21.135468 	 21.886806 	 C 	 1  ala 	 1.000000 
2231 	 C 	 23.221240 	 20.460071 	 21.290183 	 C 	 1  ala 	 1.000000 
2232 	 C 	 23.990158 	 20.387230 	 20.654999 	 C 	 1  ala 	 1.000000 
2233 	 C 	 24.904999 	 20.042713 	 20.865649 	 C 	 1  ala 	 1.000000 
2234 	 C 	 24.669016 	 19.071835 	 20.824321 	 C 	 1  ala 	 1.000000 
2235 	 C 	 23.740750 	 19.008699 	 20.457802 	 C 	 1  ala 	 1.000000 
2236 	 C 	 22.772372 	 19.132118 	 20.674624 	 C 	 1  ala 	 1.000000 
2237 	 C 	 23.194793 	 19.986648 	 20.976847 	 C 	 1  ala 	 1.000000 
2238 	 C 	 23.253969 	 20.678516 	 20.257252 	 C 	 1  ala 	 1.000000 
2239 	 C 	 24.083783 	 20.594406 	 20.808917 	 C 	 1  ala 	 1.000000 
2240 	 C 	 23.545759 	 20.810520 	 19.994162 	 C 	 1  ala 	 1.000000 
2241 	 C 	 23.145335 	 21.494119 	 19.383955 	 C 	 1  ala 	 1.000000 
2242 	 C 	 24.122099 	 21.401147 	 19.577061 	 C 	 1  ala 	 1.000000 
2243 	 C 	 24.973457 	 21.895026 	 19.400225 	 C 	 1  ala 	 1.000000 
2244 	 C 	 24.701214 	 20.984353 	 19.710963 	 C 	 1  ala 	 1.000000 
2245 	 C 	 23.988831 	 20.949728 	 19.010027 	 C 	 1  ala 	 1.000000 
2246 	 C 	 24.975270 	 20.890230 	 18.857066 	 C 	 1  ala 	 1.000000 
2247 	 C 	 24.432006 	 20.683272 	 18.043412 	 C 	 1  ala 	 1.000000 
2248 	 C 	 25.332880 	 21.037745 	 17.792861 	 C 	 1  ala 	 1.000000 
2249 	 C 	 26.181004 	 21.310495 	 18.247056 	 C 	 1  ala 	 1.000000 
2250 	 C 	 25.639611 	 21.167452 	 19.075568 	 C 	 1  ala 	 1.000000 
2251 	 C 	 25.362035 	 20.716747 	 18.227148 	 C 	 1  ala 	 1.000000 
2252 	 C 	 26.044014 	 21.416360 	 18.440328 	 C 	 1  ala 	 1.000000 
2253 	 C 	 25.420440 	 21.905505 	 17.830498 	 C 	 1  ala 	 1.000000 
2254 	 C 	 24.848681 	 21.589017 	 17.073578 	 C 	 1  ala 	 1.000000 
2255 	 C 	 25.647124 	 22.144016 	 17.306957 	 C 	 1  ala 	 1.000000 
2256 	 C 	 24.811188 	 22.619421 	 17.032728 	 C 	 1  ala 	 1.000000 
2257 	 C 	 25.666732 	 22.402704 	 17.502917 	 C 	 1  ala 	 1.000000 
2258 	 C 	 24.972746 	 22.993249 	 17.914791 	 C 	 1  ala 	 1.000000 
2259 	 C 	 25.461624 	 22.484259 	 18.623259 	 C 	 1  ala 	 1.000000 
2260 	 C 	 26.153138 	 22.099782 	 19.234804 	 C 	 1  ala 	 1.000000 
2261 	 C 	 25.538252 	 21.781055 	 18.513465 	 C 	 1  ala 	 1.000000 
2262 	 C 	 25.979354 	 20.883681 	 18.525631 	 C 	 1  ala 	 1.000000 
2263 	 C 	 25.905191 	 21.534338 	 17.769890 	 C 	 1  ala 	 1.000000 
2264 	 C 	 25.866362 	 21.826114 	 18.725588 	 C 	 1  ala 	 1.000000 
2265 	 C 	 26.422018 	 21.553777 	 19.511132 	 C 	 1  ala 	 1.000000 
2266 	 C 	 26.869462 	 21.444040 	 18.623579 	 C 	 1  ala 	 1.000000 
2267 	 C 	 27.198090 	 21.483594 	 17.679948 	 C 	 1  ala 	 1.000000 
2268 	 C 	 26.972097 	 20.771931 	 17.014769 	 C 	 1  ala 	 1.000000 
2269 	 C 	 26.814091 	 21.483434 	 16.330082 	 C 	 1  ala 	 1.000000 
2270 	 C 	 27.505925 	 21.228006 	 15.654714 	 C 	 1  ala 	 1.000000 
2271 	 C 	 28.308120 	 20.865683 	 15.180156 	 C 	 1  ala 	 1.000000 
2272 	 C 	 28.237318 	 20.856909 	 14.182705 	 C 	 1  ala 	 1.000000 
2273 	 C 	 27.832986 	 19.957823 	 14.350512 	 C 	 1  ala 	 1.000000 
2274 	 C 	 28.816077 	 19.779949 	 14.307000 	 C 	 1  ala 	 1.000000 
2275 	 C 	 28.106799 	 19.084680 	 14.423297 	 C 	 1  ala 	 1.000000 
2276 	 C 	 28.020595 	 18.744072 	 13.487052 	 C 	 1  ala 	 1.000000 
2277 	 C 	 29.009888 	 18.715216 	 13.343994 	 C 	 1  ala 	 1.000000 
2278 	 C 	 29.672407 	 18.063802 	 13.713762 	 C 	 1  ala 	 1.000000 
2279 	 C 	 30.031489 	 18.322599 	 12.817054 	 C 	 1  ala 	 1.000000 
2280 	 C 	 30.006512 	 18.529164 	 13.795168 	 C 	 1  ala 	 1.000000 
2281 	 C 	 30.458632 	 17.643190 	 13.898307 	 C 	 1  ala 	 1.000000 
2282 	 C 	 31.172923 	 17.428351 	 14.564365 	 C 	 1  ala 	 1.000000 
2283 	 C 	 32.160375 	 17.486614 	 14.417592 	 C 	 1  ala 	 1.000000 
2284 	 C 	 31.662564 	 16.779027 	 14.919095 	 C 	 1  ala 	 1.000000 
2285 	 C 	 30.764963 	 16.340449 	 14.963389 	 C 	 1  ala 	 1.000000 
2286 	 C 	 31.163911 	 15.449710 	 15.181160 	 C 	 1  ala 	 1.000000 
2287 	 C 	 31.493960 	 15.862530 	 14.332251 	 C 	 1  ala 	 1.000000 
2288 	 C 	 31.864246 	 16.034153 	 15.245177 	 C 	 1  ala 	 1.000000 
2289 	 C 	 32.366123 	 15.174307 	 15.338903 	 C 	 1  ala 	 1.000000 
2290 	 C 	 32.872885 	 14.908624 	 16.159028 	 C 	 1  ala 	 1.000000 
2291 	 C 	 33.615838 	 14.518086 	 15.615430 	 C 	 1  ala 	 1.000000 
2292 	 C 	 33.949114 	 14.364043 	 16.545590 	 C 	 1  ala 	 1.000000 
2293 	 C 	 34.533362 	 14.766777 	 15.840992 	 C 	 1  ala 	 1.000000 
2294 	 C 	 34.760955 	 15.218922 	 16.703411 	 C 	 1  ala 	 1.000000 
2295 	 C 	 34.139190 	 15.692841 	 16.079865 	 C 	 1  ala 	 1.000000 
2296 	 C 	 34.490581 	 16.547159 	 15.696894 	 C 	 1  ala 	 1.000000 
2297 	 C 	 34.636692 	 16.316135 	 16.658808 	 C 	 1  ala 	 1.000000 
2298 	 C 	 34.427396 	 15.338532 	 16.680897 	 C 	 1  ala 	 1.000000 
2299 	 C 	 34.794724 	 14.432493 	 16.891048 	 C 	 1  ala 	 1.000000 
2300 	 C 	 34.079763 	 14.312122 	 17.579772 	 C 	 1  ala 	 1.000000 
2301 	 C 	 33.133486 	 14.552705 	 17.795828 	 C 	 1  ala 	 1.000000 
2302 	 C 	 33.898486 	 15.171472 	 17.974440 	 C 	 1  ala 	 1.000000 
2303 	 C 	 33.641396 	 15.996729 	 18.477287 	 C 	 1  ala 	 1.000000 
2304 	 C 	 33.674268 	 15.688753 	 17.526461 	 C 	 1  ala 	 1.000000 
2305 	 C 	 33.073093 	 16.466596 	 17.343297 	 C 	 1  ala 	 1.000000 
2306 	 C 	 32.893835 	 16.848676 	 16.436720 	 C 	 1  ala 	 1.000000 
2307 	 C 	 33.529290 	 17.376643 	 17.000144 	 C 	 1  ala 	 1.000000 
2308 	 C 	 33.330059 	 16.590861 	 16.414608 	 C 	 1  ala 	 1.000000 
2309 	 C 	 32.387010 	 16.260010 	 16.449214 	 C 	 1  ala 	 1.000000 
2310 	 C 	 31.458639 	 16.426013 	 16.116694 	 C 	 1  ala 	 1.000000 
2311 	 C 	 32.387278 	 16.158243 	 16.373457 	 C 	 1  ala 	 1.000000 
2312 	 C 	 33.077548 	 16.507620 	 17.007069 	 C 	 1  ala 	 1.000000 
2313 	 C 	 32.816159 	 16.157796 	 16.107458 	 C 	 1  ala 	 1.000000 
2314 	 C 	 33.781231 	 15.906190 	 16.034445 	 C 	 1  ala 	 1.000000 
2315 	 C 	 33.222881 	 15.684034 	 16.833753 	 C 	 1  ala 	 1.000000 
2316 	 C 	 34.106389 	 15.227511 	 16.938635 	 C 	 1  ala 	 1.000000 
2317 	 C 	 33.962161 	 15.977106 	 17.584627 	 C 	 1  ala 	 1.000000 
2318 	 C 	 33.560971 	 16.220156 	 16.701467 	 C 	 1  ala 	 1.000000 
2319 	 C 	 32.900118 	 16.294533 	 17.448288 	 C 	 1  ala 	 1.000000 
2320 	 C 	 33.428188 	 15.493059 	 17.728966 	 C 	 1  ala 	 1.000000 
2321 	 C 	 34.343754 	 15.777429 	 17.444583 	 C 	 1  ala 	 1.000000 
2322 	 C 	 34.892894 	 16.517855 	 17.832159 	 C 	 1  ala 	 1.000000 
2323 	 C 	 34.209127 	 16.786859 	 18.510465 	 C 	 1  ala 	 1.000000 
2324 	 C 	 33.277797 	 16.844477 	 18.150875 	 C 	 1  ala 	 1.000000 
2325 	 C 	 33.858966 	 16.896992 	 18.962962 	 C 	 1  ala 	 1.000000 
2326 	 C 	 34.246059 	 17.387185 	 19.743903 	 C 	 1  ala 	 1.000000 
2327 	 C 	 33.778574 	 18.262681 	 19.866239 	 C 	 1  ala 	 1.000000 
2328 	 C 	 33.861967 	 18.429504 	 20.848692 	 C 	 1  ala 	 1.000000 
2329 	 C 	 33.456380 	 17.555087 	 20.582435 	 C 	 1  ala 	 1.000000 
2330 	 C 	 33.547066 	 17.752610 	 21.558530 	 C 	 1  ala 	 1.000000 
2331 	 C 	 33.640832 	 18.624983 	 21.078767 	 C 	 1  ala 	 1.000000 
2332 	 C 	 34.214024 	 19.410735 	 20.846291 	 C 	 1  ala 	 1.000000 
2333 	 C 	 35.094028 	 19.389165 	 21.320768 	 C 	 1  ala 	 1.000000 
2334 	 C 	 34.800152 	 19.307955 	 20.368381 	 C 	 1  ala 	 1.000000 
2335 	 C 	 33.962876 	 18.934476 	 19.969029 	 C 	 1  ala 	 1.000000 
2336 	 C 	 33.413019 	 19.430899 	 20.640759 	 C 	 1  ala 	 1.000000 
2337 	 C 	 32.707817 	 19.550545 	 21.339598 	 C 	 1  ala 	 1.000000 
2338 	 C 	 32.641840 	 19.350604 	 22.317182 	 C 	 1  ala 	 1.000000 
2339 	 C 	 33.559114 	 19.115051 	 21.996054 	 C 	 1  ala 	 1.000000 
2340 	 C 	 33.333847 	 18.318365 	 22.556899 	 C 	 1  ala 	 1.000000 
2341 	 C 	 33.247825 	 17.655147 	 21.813432 	 C 	 1  ala 	 1.000000 
2342 	 C 	 32.820049 	 17.519387 	 20.919801 	 C 	 1  ala 	 1.000000 
2343 	 C 	 32.496598 	 17.905199 	 20.055782 	 C 	 1  ala 	 1.000000 
2344 	 C 	 33.481235 	 18.056556 	 19.968709 	 C 	 1  ala 	 1.000000 
2345 	 C 	 32.959028 	 17.685721 	 20.736682 	 C 	 1  ala 	 1.000000 
2346 	 C 	 32.645503 	 17.309979 	 19.864604 	 C 	 1  ala 	 1.000000 
2347 	 C 	 33.507478 	 16.813004 	 19.964680 	 C 	 1  ala 	 1.000000 
2348 	 C 	 33.674155 	 15.960019 	 19.470074 	 C 	 1  ala 	 1.000000 
2349 	 C 	 34.335077 	 16.536902 	 19.950061 	 C 	 1  ala 	 1.000000 
2350 	 C 	 33.402559 	 16.576551 	 20.309001 	 C 	 1  ala 	 1.000000 
2351 	 C 	 32.729383 	 17.003260 	 19.705054 	 C 	 1  ala 	 1.000000 
2352 	 C 	 32.384999 	 16.160804 	 19.290727 	 C 	 1  ala 	 1.000000 
2353 	 C 	 31.576740 	 16.694924 	 19.042869 	 C 	 1  ala 	 1.000000 
2354 	 C 	 32.240806 	 16.093036 	 18.599307 	 C 	 1  ala 	 1.000000 
2355 	 C 	 32.255887 	 17.051753 	 18.315347 	 C 	 1  ala 	 1.000000 
2356 	 C 	 32.717084 	 16.518054 	 17.606501 	 C 	 1  ala 	 1.000000 
2357 	 C 	 33.668671 	 16.405397 	 17.320510 	 C 	 1  ala 	 1.000000 
2358 	 C 	 33.666157 	 16.283565 	 18.313058 	 C 	 1  ala 	 1.000000 
2359 	 C 	 32.810519 	 15.768987 	 18.257447 	 C 	 1  ala 	 1.000000 
2360 	 C 	 33.684459 	 15.300080 	 18.129563 	 C 	 1  ala 	 1.000000 
2361 	 C 	 32.862991 	 14.752656 	 17.969820 	 C 	 1  ala 	 1.000000 
2362 	 C 	 32.432080 	 15.013506 	 18.833690 	 C 	 1  ala 	 1.000000 
2363 	 C 	 32.522736 	 14.059796 	 19.120427 	 C 	 1  ala 	 1.000000 
2364 	 C 	 31.814815 	 14.553677 	 19.625333 	 C 	 1  ala 	 1.000000 
2365 	 C 	 32.317040 	 14.732697 	 20.471336 	 C 	 1  ala 	 1.000000 
2366 	 C 	 31.468020 	 14.722850 	 20.999605 	 C 	 1  ala 	 1.000000 
2367 	 C 	 30.604319 	 14.965745 	 20.557992 	 C 	 1  ala 	 1.000000 
2368 	 C 	 30.636515 	 15.502519 	 21.401103 	 C 	 1  ala 	 1.000000 
2369 	 C 	 31.066458 	 15.555493 	 20.499802 	 C 	 1  ala 	 1.000000 
2370 	 C 	 30.294690 	 15.310829 	 21.086755 	 C 	 1  ala 	 1.000000 
2371 	 C 	 31.109901 	 15.888980 	 21.121007 	 C 	 1  ala 	 1.000000 
2372 	 C 	 30.859751 	 16.563984 	 21.815122 	 C 	 1  ala 	 1.000000 
2373 	 C 	 31.240658 	 17.150244 	 22.530110 	 C 	 1  ala 	 1.000000 
2374 	 C 	 31.376770 	 17.019380 	 23.512122 	 C 	 1  ala 	 1.000000 
2375 	 C 	 30.427265 	 17.037627 	 23.825343 	 C 	 1  ala 	 1.000000 
2376 	 C 	 30.913827 	 17.803582 	 24.245545 	 C 	 1  ala 	 1.000000 
2377 	 C 	 31.626618 	 17.105681 	 24.315281 	 C 	 1  ala 	 1.000000 
2378 	 C 	 31.882479 	 17.886137 	 24.885740 	 C 	 1  ala 	 1.000000 
2379 	 C 	 31.063959 	 18.114981 	 24.358810 	 C 	 1  ala 	 1.000000 
2380 	 C 	 31.397684 	 18.775321 	 25.031549 	 C 	 1  ala 	 1.000000 
2381 	 C 	 31.616301 	 19.749786 	 24.980302 	 C 	 1  ala 	 1.000000 
2382 	 C 	 31.010305 	 20.066775 	 24.250722 	 C 	 1  ala 	 1.000000 
2383 	 C 	 30.230971 	 20.683353 	 24.139047 	 C 	 1  ala 	 1.000000 
2384 	 C 	 30.268219 	 19.738949 	 24.465717 	 C 	 1  ala 	 1.000000 
2385 	 C 	 30.143078 	 19.105062 	 23.702483 	 C 	 1  ala 	 1.000000 
2386 	 C 	 30.120317 	 19.800518 	 22.984274 	 C 	 1  ala 	 1.000000 
2387 	 C 	 30.518763 	 19.394628 	 23.806767 	 C 	 1  ala 	 1.000000 
2388 	 C 	 30.906338 	 18.518423 	 24.093213 	 C 	 1  ala 	 1.000000 
2389 	 C 	 31.677256 	 18.449380 	 24.726393 	 C 	 1  ala 	 1.000000 
2390 	 C 	 31.944378 	 19.387798 	 24.945525 	 C 	 1  ala 	 1.000000 
2391 	 C 	 32.775551 	 19.711232 	 25.397787 	 C 	 1  ala 	 1.000000 
2392 	 C 	 33.096543 	 19.030759 	 24.739060 	 C 	 1  ala 	 1.000000 
2393 	 C 	 32.518667 	 19.727952 	 25.163303 	 C 	 1  ala 	 1.000000 
2394 	 C 	 32.234150 	 19.200228 	 25.963651 	 C 	 1  ala 	 1.000000 
2395 	 C 	 32.780947 	 18.554821 	 26.497002 	 C 	 1  ala 	 1.000000 
2396 	 C 	 33.689380 	 18.968065 	 26.433920 	 C 	 1  ala 	 1.000000 
2397 	 C 	 33.099066 	 19.619313 	 25.957049 	 C 	 1  ala 	 1.000000 
2398 	 C 	 32.422209 	 19.093601 	 25.441792 	 C 	 1  ala 	 1.000000 
2399 	 C 	 31.500461 	 18.706296 	 25.422415 	 C 	 1  ala 	 1.000000 
2400 	 C 	 32.187538 	 18.523940 	 24.719087 	 C 	 1  ala 	 1.000000 
2401 	 C 	 32.821517 	 18.287874 	 25.455527 	 C 	 1  ala 	 1.000000 
2402 	 C 	 32.500208 	 17.344454 	 25.373557 	 C 	 1  ala 	 1.000000 
2403 	 C 	 32.553598 	 17.084884 	 24.409309 	 C 	 1  ala 	 1.000000 
2404 	 C 	 32.831207 	 17.198636 	 25.363245 	 C 	 1  ala 	 1.000000 
2405 	 C 	 33.782040 	 17.111931 	 25.660566 	 C 	 1  ala 	 1.000000 
2406 	 C 	 34.245885 	 17.951469 	 25.943453 	 C 	 1  ala 	 1.000000 
2407 	 C 	 34.323758 	 17.025427 	 25.574153 	 C 	 1  ala 	 1.000000 
2408 	 C 	 34.530003 	 17.988702 	 25.746098 	 C 	 1  ala 	 1.000000 
2409 	 C 	 34.915991 	 17.189014 	 25.286192 	 C 	 1  ala 	 1.000000 
2410 	 C 	 34.799621 	 16.201180 	 25.389345 	 C 	 1  ala 	 1.000000 
2411 	 C 	 34.343688 	 16.170030 	 26.278814 	 C 	 1  ala 	 1.000000 
2412 	 C 	 34.581626 	 15.227345 	 26.512760 	 C 	 1  ala 	 1.000000 
2413 	 C 	 34.520118 	 14.436352 	 27.121485 	 C 	 1  ala 	 1.000000 
2414 	 C 	 34.083861 	 15.019946 	 27.806392 	 C 	 1  ala 	 1.000000 
2415 	 C 	 35.002947 	 15.340915 	 27.577791 	 C 	 1  ala 	 1.000000 
2416 	 C 	 35.011138 	 14.526209 	 28.157608 	 C 	 1  ala 	 1.000000 
2417 	 C 	 35.656244 	 13.762349 	 28.138724 	 C 	 1  ala 	 1.000000 
2418 	 C 	 36.349794 	 13.124642 	 28.473864 	 C 	 1  ala 	 1.000000 
2419 	 C 	 36.393311 	 14.066323 	 28.807546 	 C 	 1  ala 	 1.000000 
2420 	 C 	 36.329251 	 14.849876 	 28.189531 	 C 	 1  ala 	 1.000000 
2421 	 C 	 36.415139 	 15.826183 	 28.388143 	 C 	 1  ala 	 1.000000 
2422 	 C 	 35.975674 	 16.236604 	 29.187157 	 C 	 1  ala 	 1.000000 
2423 	 C 	 35.762818 	 17.082021 	 29.677017 	 C 	 1  ala 	 1.000000 
2424 	 C 	 35.862671 	 16.861453 	 30.647264 	 C 	 1  ala 	 1.000000 
2425 	 C 	 35.753512 	 17.817112 	 30.373770 	 C 	 1  ala 	 1.000000 
2426 	 C 	 35.853708 	 18.568479 	 29.721536 	 C 	 1  ala 	 1.000000 
2427 	 C 	 36.265274 	 17.786003 	 29.254264 	 C 	 1  ala 	 1.000000 
2428 	 C 	 36.301585 	 17.209782 	 30.070751 	 C 	 1  ala 	 1.000000 
2429 	 C 	 35.435686 	 17.694007 	 29.945273 	 C 	 1  ala 	 1.000000 
2430 	 C 	 35.660705 	 18.511292 	 30.475757 	 C 	 1  ala 	 1.000000 
2431 	 C 	 34.825366 	 19.030720 	 30.655763 	 C 	 1  ala 	 1.000000 
2432 	 C 	 34.091533 	 19.304557 	 30.034069 	 C 	 1  ala 	 1.000000 
2433 	 C 	 34.969691 	 19.747069 	 30.215789 	 C 	 1  ala 	 1.000000 
2434 	 C 	 35.967245 	 19.811851 	 30.189558 	 C 	 1  ala 	 1.000000 
2435 	 C 	 35.985435 	 19.027961 	 29.568926 	 C 	 1  ala 	 1.000000 
2436 	 C 	 35.339644 	 18.321749 	 29.278722 	 C 	 1  ala 	 1.000000 
2437 	 C 	 35.617303 	 19.075816 	 29.873944 	 C 	 1  ala 	 1.000000 
2438 	 C 	 34.870208 	 18.605889 	 30.344068 	 C 	 1  ala 	 1.000000 
2439 	 C 	 34.818212 	 19.560670 	 30.636795 	 C 	 1  ala 	 1.000000 
2440 	 C 	 35.685880 	 19.163900 	 30.337253 	 C 	 1  ala 	 1.000000 
2441 	 C 	 34.740002 	 19.429015 	 30.524409 	 C 	 1  ala 	 1.000000 
2442 	 C 	 34.297384 	 18.820056 	 31.182633 	 C 	 1  ala 	 1.000000 
2443 	 C 	 33.568854 	 19.087796 	 30.552111 	 C 	 1  ala 	 1.000000 
2444 	 C 	 34.493801 	 19.138074 	 30.928867 	 C 	 1  ala 	 1.000000 
2445 	 C 	 34.105831 	 19.920403 	 31.416145 	 C 	 1  ala 	 1.000000 
2446 	 C 	 33.798724 	 19.365237 	 30.643178 	 C 	 1  ala 	 1.000000 
2447 	 C 	 34.524594 	 19.768365 	 30.085862 	 C 	 1  ala 	 1.000000 
2448 	 C 	 35.068232 	 19.900934 	 30.914647 	 C 	 1  ala 	 1.000000 
2449 	 C 	 34.951546 	 18.911529 	 30.828262 	 C 	 1  ala 	 1.000000 
2450 	 O 	 35.462659 	 18.288964 	 30.235661 	 O 	 1  ala 	 1.000000 
2451 	 C 	 34.696860 	 18.882709 	 30.482678 	 C 	 1  ala 	 1.000000 
2452 	 C 	 34.741126 	 18.587763 	 31.437166 	 C 	 1  ala 	 1.000000 
2453 	 C 	 35.222826 	 17.741043 	 31.211267 	 C 	 1  ala 	 1.000000 
2454 	 C 	 34.928168 	 16.826995 	 30.932531 	 C 	 1  ala 	 1.000000 
2455 	 C 	 35.072965 	 15.841344 	 31.019286 	 C 	 1  ala 	 1.000000 
2456 	 C 	 35.527600 	 16.704128 	 31.240446 	 C 	 1  ala 	 1.000000 
2457 	 C 	 35.407715 	 16.237339 	 32.116651 	 C 	 1  ala 	 1.000000 
2458 	 C 	 35.481357 	 16.482145 	 31.149879 	 C 	 1  ala 	 1.000000 
2459 	 C 	 36.218297 	 15.857096 	 31.407235 	 C 	 1  ala 	 1.000000 
2460 	 C 	 36.650981 	 15.518559 	 32.242805 	 C 	 1  ala 	 1.000000 
2461 	 C 	 37.401872 	 15.782487 	 31.637409 	 C 	 1  ala 	 1.000000 
2462 	 C 	 38.257073 	 16.275816 	 31.796333 	 C 	 1  ala 	 1.000000 
2463 	 C 	 38.378066 	 15.934118 	 30.864345 	 C 	 1  ala 	 1.000000 
2464 	 C 	 38.506964 	 15.764394 	 29.887319 	 C 	 1  ala 	 1.000000 
2465 	 C 	 38.436700 	 15.792671 	 30.884447 	 C 	 1  ala 	 1.000000 
2466 	 C 	 38.657947 	 15.677986 	 31.852898 	 C 	 1  ala 	 1.000000 
2467 	 C 	 37.697784 	 15.679136 	 32.132336 	 C 	 1  ala 	 1.000000 
2468 	 C 	 36.820829 	 15.721162 	 31.653605 	 C 	 1  ala 	 1.000000 
2469 	 C 	 35.993261 	 16.277157 	 31.576135 	 C 	 1  ala 	 1.000000 
2470 	 C 	 35.442712 	 15.686094 	 32.165660 	 C 	 1  ala 	 1.000000 
2471 	 C 	 34.586790 	 15.554175 	 31.665664 	 C 	 1  ala 	 1.000000 
2472 	 C 	 34.328717 	 16.428899 	 32.075854 	 C 	 1  ala 	 1.000000 
2473 	 C 	 33.900644 	 15.619733 	 31.673358 	 C 	 1  ala 	 1.000000 
2474 	 C 	 33.770592 	 14.633535 	 31.570887 	 C 	 1  ala 	 1.000000 
2475 	 C 	 33.914982 	 15.420590 	 32.170634 	 C 	 1  ala 	 1.000000 
2476 	 C 	 33.461558 	 16.282446 	 31.943455 	 C 	 1  ala 	 1.000000 
2477 	 C 	 33.600050 	 15.514993 	 32.569423 	 C 	 1  ala 	 1.000000 
2478 	 C 	 33.500380 	 16.290383 	 33.192991 	 C 	 1  ala 	 1.000000 
2479 	 C 	 32.791382 	 15.800019 	 33.699810 	 C 	 1  ala 	 1.000000 
2480 	 C 	 33.388955 	 15.889703 	 32.903027 	 C 	 1  ala 	 1.000000 
2481 	 C 	 32.471264 	 15.895735 	 32.505778 	 C 	 1  ala 	 1.000000 
2482 	 C 	 33.075915 	 16.634070 	 32.207013 	 C 	 1  ala 	 1.000000 
2483 	 C 	 33.665705 	 15.828038 	 32.256620 	 C 	 1  ala 	 1.000000 
2484 	 C 	 33.812729 	 15.454982 	 33.172706 	 C 	 1  ala 	 1.000000 
2485 	 C 	 33.445848 	 14.525310 	 33.206007 	 C 	 1  ala 	 1.000000 
2486 	 C 	 33.692435 	 14.171998 	 32.303585 	 C 	 1  ala 	 1.000000 
2487 	 C 	 33.488859 	 13.977474 	 31.344045 	 C 	 1  ala 	 1.000000 
2488 	 C 	 33.346689 	 13.212292 	 31.971965 	 C 	 1  ala 	 1.000000 
2489 	 C 	 33.543508 	 12.388317 	 32.503310 	 C 	 1  ala 	 1.000000 
2490 	 C 	 33.570546 	 13.350073 	 32.230740 	 C 	 1  ala 	 1.000000 
2491 	 C 	 33.202640 	 12.809915 	 32.987625 	 C 	 1  ala 	 1.000000 
2492 	 C 	 32.870986 	 13.752509 	 32.948616 	 C 	 1  ala 	 1.000000 
2493 	 C 	 32.935702 	 12.758614 	 33.037970 	 C 	 1  ala 	 1.000000 
2494 	 C 	 32.605076 	 13.395234 	 32.341263 	 C 	 1  ala 	 1.000000 
2495 	 C 	 32.771355 	 12.621218 	 31.730321 	 C 	 1  ala 	 1.000000 
2496 	 C 	 33.622988 	 12.365164 	 31.272983 	 C 	 1  ala 	 1.000000 
2497 	 C 	 32.780868 	 12.736472 	 31.664089 	 C 	 1  ala 	 1.000000 
2498 	 C 	 32.432735 	 13.654819 	 31.475827 	 C 	 1  ala 	 1.000000 
2499 	 C 	 33.414611 	 13.721333 	 31.298356 	 C 	 1  ala 	 1.000000 
2500 	 C 	 32.836698 	 13.840935 	 32.105643 	 C 	 1  ala 	 1.000000 
2501 	 C 	 32.783831 	 13.255292 	 32.914486 	 C 	 1  ala 	 1.000000 
2502 	 C 	 32.942819 	 12.471980 	 32.313532 	 C 	 1  ala 	 1.000000 
2503 	 C 	 33.538552 	 12.631358 	 31.526322 	 C 	 1  ala 	 1.000000 
2504 	 C 	 33.959086 	 11.816667 	 31.925608 	 C 	 1  ala 	 1.000000 
2505 	 C 	 33.955689 	 10.820533 	 31.837818 	 C 	 1  ala 	 1.000000 
2506 	 C 	 34.272147 	 9.919320 	 31.541728 	 C 	 1  ala 	 1.000000 
2507 	 C 	 33.454922 	 10.145326 	 32.071884 	 C 	 1  ala 	 1.000000 
2508 	 C 	 32.541950 	 9.937839 	 32.423210 	 C 	 1  ala 	 1.000000 
2509 	 C 	 33.132742 	 10.392014 	 31.756360 	 C 	 1  ala 	 1.000000 
2510 	 C 	 34.124829 	 10.481529 	 31.844397 	 C 	 1  ala 	 1.000000 
2511 	 C 	 34.951362 	 10.411371 	 32.402896 	 C 	 1  ala 	 1.000000 
2512 	 C 	 35.419188 	 9.777782 	 33.019098 	 C 	 1  ala 	 1.000000 
2513 	 C 	 34.898561 	 10.231422 	 33.742395 	 C 	 1  ala 	 1.000000 
2514 	 C 	 34.045881 	 10.750094 	 33.804978 	 C 	 1  ala 	 1.000000 
2515 	 C 	 33.641004 	 10.807313 	 34.717557 	 C 	 1  ala 	 1.000000 
2516 	 C 	 33.707784 	 10.519910 	 33.762078 	 C 	 1  ala 	 1.000000 
2517 	 C 	 32.989893 	 11.191810 	 33.944243 	 C 	 1  ala 	 1.000000 
2518 	 C 	 33.959354 	 11.366182 	 34.116698 	 C 	 1  ala 	 1.000000 
2519 	 C 	 33.265250 	 10.995870 	 33.499374 	 C 	 1  ala 	 1.000000 
2520 	 C 	 33.466834 	 10.956250 	 34.478044 	 C 	 1  ala 	 1.000000 
2521 	 C 	 34.464596 	 10.889906 	 34.486396 	 C 	 1  ala 	 1.000000 
2522 	 C 	 33.591545 	 11.369115 	 34.576623 	 C 	 1  ala 	 1.000000 
2523 	 C 	 33.086323 	 10.611026 	 34.988996 	 C 	 1  ala 	 1.000000 
2524 	 C 	 32.450374 	 10.034359 	 35.501855 	 C 	 1  ala 	 1.000000 
2525 	 C 	 32.555858 	 9.381392 	 34.751850 	 C 	 1  ala 	 1.000000 
2526 	 C 	 32.549906 	 9.572033 	 33.770209 	 C 	 1  ala 	 1.000000 
2527 	 C 	 31.868407 	 9.507764 	 34.499200 	 C 	 1  ala 	 1.000000 
2528 	 C 	 31.755315 	 9.261916 	 33.536512 	 C 	 1  ala 	 1.000000 
2529 	 C 	 31.850461 	 10.255559 	 33.476352 	 C 	 1  ala 	 1.000000 
2530 	 C 	 32.440772 	 10.920958 	 33.019430 	 C 	 1  ala 	 1.000000 
2531 	 C 	 32.133074 	 11.145437 	 33.944055 	 C 	 1  ala 	 1.000000 
2532 	 C 	 32.178144 	 11.613279 	 33.061393 	 C 	 1  ala 	 1.000000 
2533 	 C 	 31.717520 	 12.108955 	 32.325097 	 C 	 1  ala 	 1.000000 
2534 	 C 	 30.765793 	 12.202475 	 32.032747 	 C 	 1  ala 	 1.000000 
2535 	 C 	 30.824645 	 12.663963 	 32.917939 	 C 	 1  ala 	 1.000000 
2536 	 C 	 30.669214 	 12.345654 	 33.853097 	 C 	 1  ala 	 1.000000 
2537 	 C 	 30.046175 	 12.264462 	 34.631062 	 C 	 1  ala 	 1.000000 
2538 	 C 	 29.989663 	 11.480411 	 35.249181 	 C 	 1  ala 	 1.000000 
2539 	 C 	 29.331194 	 10.917725 	 34.749378 	 C 	 1  ala 	 1.000000 
2540 	 C 	 30.219950 	 10.460733 	 34.713723 	 C 	 1  ala 	 1.000000 
2541 	 C 	 29.740523 	 10.892928 	 35.477501 	 C 	 1  ala 	 1.000000 
2542 	 C 	 30.193005 	 11.755773 	 35.252202 	 C 	 1  ala 	 1.000000 
2543 	 C 	 30.953838 	 11.404328 	 34.706657 	 C 	 1  ala 	 1.000000 
2544 	 C 	 31.140431 	 11.834014 	 33.823168 	 C 	 1  ala 	 1.000000 
2545 	 C 	 31.877758 	 11.219195 	 34.103073 	 C 	 1  ala 	 1.000000 
2546 	 C 	 31.172258 	 11.032595 	 33.419370 	 C 	 1  ala 	 1.000000 
2547 	 C 	 31.135447 	 10.116570 	 33.818799 	 C 	 1  ala 	 1.000000 
2548 	 C 	 31.859880 	 9.579684 	 34.251176 	 C 	 1  ala 	 1.000000 
2549 	 C 	 30.995009 	 9.840823 	 33.822451 	 C 	 1  ala 	 1.000000 
2550 	 N 	 31.247450 	 9.100143 	 33.199821 	 N 	 1  ala 	 1.000000 
2551 	 C 	 31.271275 	 8.547936 	 32.366455 	 C 	 1  ala 	 1.000000 
2552 	 C 	 32.133237 	 8.071254 	 32.193842 	 C 	 1  ala 	 1.000000 
2553 	 C 	 32.289486 	 7.083836 	 32.218193 	 C 	 1  ala 	 1.000000 
2554 	 C 	 31.938387 	 6.967548 	 31.289104 	 C 	 1  ala 	 1.000000 
2555 	 C 	 32.686186 	 6.334873 	 31.490398 	 C 	 1  ala 	 1.000000 
2556 	 C 	 31.835514 	 6.198546 	 30.982684 	 C 	 1  ala 	 1.000000 
2557 	 C 	 31.823511 	 7.036265 	 30.436713 	 C 	 1  ala 	 1.000000 
2558 	 C 	 32.437062 	 6.531275 	 29.829638 	 C 	 1  ala 	 1.000000 
2559 	 C 	 31.787818 	 7.234604 	 30.119138 	 C 	 1  ala 	 1.000000 
2560 	 C 	 30.853276 	 7.189426 	 30.472111 	 C 	 1  ala 	 1.000000 
2561 	 C 	 31.466383 	 7.772808 	 29.939415 	 C 	 1  ala 	 1.000000 
2562 	 C 	 31.724908 	 8.385587 	 30.686186 	 C 	 1  ala 	 1.000000 
2563 	 C 	 31.729362 	 7.975055 	 29.774351 	 C 	 1  ala 	 1.000000 
2564 	 C 	 31.701543 	 7.978948 	 30.773956 	 C 	 1  ala 	 1.000000 
2565 	 C 	 32.220838 	 8.017966 	 31.627660 	 C 	 1  ala 	 1.000000 
2566 	 C 	 32.045428 	 8.973351 	 31.390024 	 C 	 1  ala 	 1.000000 
2567 	 C 	 31.152607 	 8.578232 	 31.173804 	 C 	 1  ala 	 1.000000 
2568 	 C 	 30.823037 	 7.791132 	 30.652404 	 C 	 1  ala 	 1.000000 
2569 	 C 	 30.978025 	 6.824103 	 30.854476 	 C 	 1  ala 	 1.000000 
2570 	 C 	 31.889422 	 7.234665 	 30.882651 	 C 	 1  ala 	 1.000000 
2571 	 C 	 31.236137 	 7.933007 	 31.175115 	 C 	 1  ala 	 1.000000 
2572 	 C 	 32.018161 	 7.694837 	 30.599170 	 C 	 1  ala 	 1.000000 
2573 	 C 	 32.785053 	 8.047909 	 31.135096 	 C 	 1  ala 	 1.000000 
2574 	 C 	 32.495805 	 8.999862 	 31.034493 	 C 	 1  ala 	 1.000000 
2575 	 C 	 32.095274 	 8.170961 	 31.425002 	 C 	 1  ala 	 1.000000 
2576 	 C 	 32.176031 	 9.162697 	 31.325312 	 C 	 1  ala 	 1.000000 
2577 	 C 	 32.456632 	 9.639425 	 30.492249 	 C 	 1  ala 	 1.000000 
2578 	 C 	 31.663006 	 9.526459 	 31.090075 	 C 	 1  ala 	 1.000000 
2579 	 C 	 32.629939 	 9.430013 	 30.853985 	 C 	 1  ala 	 1.000000 
2580 	 C 	 31.830303 	 8.856220 	 30.676942 	 C 	 1  ala 	 1.000000 
2581 	 C 	 32.556405 	 9.514408 	 30.478031 	 C 	 1  ala 	 1.000000 
2582 	 C 	 31.749172 	 9.952510 	 30.082504 	 C 	 1  ala 	 1.000000 
2583 	 C 	 31.148724 	 10.558959 	 30.603736 	 C 	 1  ala 	 1.000000 
2584 	 C 	 32.120657 	 10.792952 	 30.628069 	 C 	 1  ala 	 1.000000 
2585 	 C 	 32.185412 	 11.058675 	 29.666197 	 C 	 1  ala 	 1.000000 
2586 	 C 	 32.385931 	 10.126251 	 29.966828 	 C 	 1  ala 	 1.000000 
2587 	 C 	 33.148330 	 9.515167 	 29.753932 	 C 	 1  ala 	 1.000000 
2588 	 C 	 32.989843 	 8.628273 	 30.187867 	 C 	 1  ala 	 1.000000 
2589 	 C 	 32.079111 	 8.622430 	 29.774910 	 C 	 1  ala 	 1.000000 
2590 	 C 	 31.149638 	 8.947255 	 29.949750 	 C 	 1  ala 	 1.000000 
2591 	 C 	 31.495913 	 8.112540 	 29.521563 	 C 	 1  ala 	 1.000000 
2592 	 C 	 31.813258 	 9.009959 	 29.215079 	 C 	 1  ala 	 1.000000 
2593 	 C 	 30.869268 	 9.227039 	 28.966563 	 C 	 1  ala 	 1.000000 
2594 	 C 	 30.500102 	 8.297696 	 28.960337 	 C 	 1  ala 	 1.000000 
2595 	 C 	 30.020865 	 9.173397 	 28.901343 	 C 	 1  ala 	 1.000000 
2596 	 C 	 30.959018 	 9.334179 	 29.207968 	 C 	 1  ala 	 1.000000 
2597 	 C 	 30.865908 	 8.469731 	 28.713942 	 C 	 1  ala 	 1.000000 
2598 	 C 	 31.290208 	 7.571380 	 28.600212 	 C 	 1  ala 	 1.000000 
2599 	 C 	 31.370174 	 8.290094 	 29.290904 	 C 	 1  ala 	 1.000000 
2600 	 C 	 30.840952 	 9.105583 	 29.525216 	 C 	 1  ala 	 1.000000 
2601 	 C 	 31.071694 	 9.980298 	 29.099032 	 C 	 1  ala 	 1.000000 
2602 	 C 	 30.261998 	 10.545630 	 29.256485 	 C 	 1  ala 	 1.000000 
2603 	 C 	 30.124737 	 11.431990 	 28.814302 	 C 	 1  ala 	 1.000000 
2604 	 C 	 29.776593 	 11.777626 	 29.685698 	 C 	 1  ala 	 1.000000 
2605 	 C 	 30.481611 	 11.534996 	 29.019304 	 C 	 1  ala 	 1.000000 
2606 	 C 	 29.603937 	 11.237835 	 28.643294 	 C 	 1  ala 	 1.000000 
2607 	 C 	 30.411362 	 11.313302 	 29.228417 	 C 	 1  ala 	 1.000000 
2608 	 C 	 31.023028 	 11.179972 	 28.448616 	 C 	 1  ala 	 1.000000 
2609 	 C 	 30.950029 	 11.689413 	 29.306021 	 C 	 1  ala 	 1.000000 
2610 	 C 	 31.726462 	 12.251362 	 29.591266 	 C 	 1  ala 	 1.000000 
2611 	 C 	 30.731362 	 12.336769 	 29.641086 	 C 	 1  ala 	 1.000000 
2612 	 C 	 30.879485 	 11.384961 	 29.909637 	 C 	 1  ala 	 1.000000 
2613 	 C 	 31.487468 	 11.861996 	 30.544297 	 C 	 1  ala 	 1.000000 
2614 	 C 	 31.144009 	 11.815497 	 31.482313 	 C 	 1  ala 	 1.000000 
2615 	 C 	 30.430030 	 11.362898 	 30.948094 	 C 	 1  ala 	 1.000000 
2616 	 C 	 30.343923 	 11.046724 	 30.003309 	 C 	 1  ala 	 1.000000 
2617 	 C 	 29.924463 	 11.013997 	 29.096125 	 C 	 1  ala 	 1.000000 
2618 	 C 	 29.466560 	 11.830616 	 28.744760 	 C 	 1  ala 	 1.000000 
2619 	 C 	 29.626289 	 12.749069 	 29.106603 	 C 	 1  ala 	 1.000000 
2620 	 C 	 28.953692 	 13.405097 	 29.449006 	 C 	 1  ala 	 1.000000 
2621 	 C 	 29.688849 	 13.047186 	 30.024718 	 C 	 1  ala 	 1.000000 
2622 	 C 	 29.138278 	 12.398199 	 30.549778 	 C 	 1  ala 	 1.000000 
2623 	 C 	 28.420871 	 12.024640 	 29.961746 	 C 	 1  ala 	 1.000000 
2624 	 C 	 28.428003 	 11.276338 	 29.298427 	 C 	 1  ala 	 1.000000 
2625 	 C 	 28.106665 	 10.652501 	 28.585988 	 C 	 1  ala 	 1.000000 
2626 	 C 	 27.135837 	 10.438481 	 28.477876 	 C 	 1  ala 	 1.000000 
2627 	 C 	 27.161395 	 11.176750 	 27.803854 	 C 	 1  ala 	 1.000000 
2628 	 C 	 26.397381 	 11.819888 	 27.752308 	 C 	 1  ala 	 1.000000 
2629 	 C 	 26.695183 	 11.992358 	 28.691226 	 C 	 1  ala 	 1.000000 
2630 	 C 	 26.752473 	 11.412921 	 29.504227 	 C 	 1  ala 	 1.000000 
2631 	 C 	 26.133485 	 12.176207 	 29.689285 	 C 	 1  ala 	 1.000000 
2632 	 C 	 26.018423 	 11.229839 	 29.387379 	 C 	 1  ala 	 1.000000 
2633 	 C 	 26.937798 	 11.272005 	 29.778494 	 C 	 1  ala 	 1.000000 
2634 	 C 	 26.593814 	 10.343278 	 29.916845 	 C 	 1  ala 	 1.000000 
2635 	 C 	 27.036667 	 10.809359 	 30.682775 	 C 	 1  ala 	 1.000000 
2636 	 C 	 27.796160 	 11.284851 	 30.238841 	 C 	 1  ala 	 1.000000 
2637 	 C 	 26.928041 	 10.956395 	 30.610978 	 C 	 1  ala 	 1.000000 
2638 	 C 	 26.595076 	 11.152819 	 29.688724 	 C 	 1  ala 	 1.000000 
2639 	 C 	 26.047370 	 10.477310 	 30.182389 	 C 	 1  ala 	 1.000000 
2640 	 C 	 26.193872 	 9.491607 	 30.099167 	 C 	 1  ala 	 1.000000 
2641 	 C 	 26.015387 	 9.024195 	 30.965002 	 C 	 1  ala 	 1.000000 
2642 	 C 	 25.665408 	 8.088935 	 31.017940 	 C 	 1  ala 	 1.000000 
2643 	 C 	 25.604785 	 7.162009 	 30.647625 	 C 	 1  ala 	 1.000000 
2644 	 C 	 26.228643 	 7.816215 	 30.220056 	 C 	 1  ala 	 1.000000 
2645 	 C 	 26.598916 	 8.737510 	 30.101249 	 C 	 1  ala 	 1.000000 
2646 	 C 	 25.887441 	 9.436990 	 30.168563 	 C 	 1  ala 	 1.000000 
2647 	 C 	 26.387907 	 9.137627 	 29.356211 	 C 	 1  ala 	 1.000000 
2648 	 C 	 25.589349 	 9.609542 	 29.729843 	 C 	 1  ala 	 1.000000 
2649 	 C 	 24.816052 	 10.213859 	 29.921710 	 C 	 1  ala 	 1.000000 
2650 	 C 	 25.565095 	 10.319087 	 29.267599 	 C 	 1  ala 	 1.000000 
2651 	 C 	 25.647726 	 9.412516 	 28.853713 	 C 	 1  ala 	 1.000000 
2652 	 C 	 25.521600 	 9.094132 	 29.793247 	 C 	 1  ala 	 1.000000 
2653 	 C 	 25.537915 	 8.656203 	 28.894386 	 C 	 1  ala 	 1.000000 
2654 	 C 	 26.277538 	 8.730579 	 29.563285 	 C 	 1  ala 	 1.000000 
2655 	 C 	 26.158695 	 7.774299 	 29.296070 	 C 	 1  ala 	 1.000000 
2656 	 C 	 25.783152 	 6.894756 	 29.588256 	 C 	 1  ala 	 1.000000 
2657 	 C 	 26.095032 	 7.777555 	 29.939536 	 C 	 1  ala 	 1.000000 
2658 	 C 	 26.898038 	 7.842687 	 30.531937 	 C 	 1  ala 	 1.000000 
2659 	 C 	 26.724863 	 8.303441 	 29.661468 	 C 	 1  ala 	 1.000000 
2660 	 C 	 26.966774 	 7.359828 	 29.435471 	 C 	 1  ala 	 1.000000 
2661 	 C 	 27.068413 	 7.638289 	 28.480416 	 C 	 1  ala 	 1.000000 
2662 	 C 	 27.563549 	 6.894058 	 28.032129 	 C 	 1  ala 	 1.000000 
2663 	 C 	 26.569136 	 6.951892 	 28.120435 	 C 	 1  ala 	 1.000000 
2664 	 C 	 27.346671 	 6.457777 	 28.509394 	 C 	 1  ala 	 1.000000 
2665 	 C 	 26.922423 	 6.959714 	 29.263100 	 C 	 1  ala 	 1.000000 
2666 	 C 	 27.455284 	 7.622236 	 29.789525 	 C 	 1  ala 	 1.000000 
2667 	 C 	 26.794302 	 8.074270 	 29.190553 	 C 	 1  ala 	 1.000000 
2668 	 C 	 26.447739 	 7.651451 	 28.353225 	 C 	 1  ala 	 1.000000 
2669 	 C 	 26.211508 	 7.894823 	 27.412499 	 C 	 1  ala 	 1.000000 
2670 	 C 	 25.946977 	 7.694053 	 26.469252 	 C 	 1  ala 	 1.000000 
2671 	 C 	 26.138378 	 8.525185 	 25.947155 	 C 	 1  ala 	 1.000000 
2672 	 C 	 25.580908 	 8.876670 	 25.195034 	 C 	 1  ala 	 1.000000 
2673 	 C 	 25.041710 	 9.707150 	 25.055146 	 C 	 1  ala 	 1.000000 
2674 	 C 	 25.292022 	 10.622957 	 24.741072 	 C 	 1  ala 	 1.000000 
2675 	 C 	 25.584696 	 10.437650 	 25.679157 	 C 	 1  ala 	 1.000000 
2676 	 C 	 24.959299 	 9.781209 	 25.257299 	 C 	 1  ala 	 1.000000 
2677 	 C 	 25.510309 	 9.718458 	 26.089435 	 C 	 1  ala 	 1.000000 
2678 	 C 	 25.496221 	 10.441729 	 25.399015 	 C 	 1  ala 	 1.000000 
2679 	 C 	 25.090441 	 11.111065 	 26.021373 	 C 	 1  ala 	 1.000000 
2680 	 C 	 24.418288 	 10.528597 	 25.564271 	 C 	 1  ala 	 1.000000 
2681 	 C 	 23.653059 	 10.431300 	 24.927909 	 C 	 1  ala 	 1.000000 
2682 	 C 	 23.185176 	 10.109665 	 25.751096 	 C 	 1  ala 	 1.000000 
2683 	 C 	 24.097519 	 9.873211 	 25.416851 	 C 	 1  ala 	 1.000000 
2684 	 C 	 23.738345 	 10.126193 	 26.315180 	 C 	 1  ala 	 1.000000 
2685 	 C 	 24.442838 	 10.733598 	 26.682261 	 C 	 1  ala 	 1.000000 
2686 	 C 	 24.740228 	 9.971289 	 26.107417 	 C 	 1  ala 	 1.000000 
2687 	 C 	 24.231602 	 9.114964 	 26.196896 	 C 	 1  ala 	 1.000000 
2688 	 C 	 23.816727 	 8.368146 	 25.677144 	 C 	 1  ala 	 1.000000 
2689 	 C 	 22.971679 	 8.165235 	 25.182452 	 C 	 1  ala 	 1.000000 
2690 	 C 	 22.851768 	 8.398789 	 26.147374 	 C 	 1  ala 	 1.000000 
2691 	 C 	 22.269317 	 8.833145 	 25.460289 	 C 	 1  ala 	 1.000000 
2692 	 C 	 22.373932 	 7.923218 	 25.058929 	 C 	 1  ala 	 1.000000 
2693 	 C 	 21.967912 	 8.082075 	 25.958880 	 C 	 1  ala 	 1.000000 
2694 	 C 	 22.498605 	 8.929419 	 25.939598 	 C 	 1  ala 	 1.000000 
2695 	 C 	 22.380954 	 9.643241 	 25.249223 	 C 	 1  ala 	 1.000000 
2696 	 C 	 22.860221 	 9.032270 	 25.879316 	 C 	 1  ala 	 1.000000 
2697 	 C 	 23.618987 	 9.491881 	 25.417761 	 C 	 1  ala 	 1.000000 
2698 	 C 	 24.084294 	 9.643386 	 24.545674 	 C 	 1  ala 	 1.000000 
2699 	 C 	 24.020543 	 9.518358 	 23.555571 	 C 	 1  ala 	 1.000000 
2700 	 C 	 24.322062 	 9.952859 	 24.404273 	 C 	 1  ala 	 1.000000 
2701 	 C 	 24.187773 	 10.927507 	 24.583235 	 C 	 1  ala 	 1.000000 
2702 	 C 	 23.946295 	 10.366773 	 23.791234 	 C 	 1  ala 	 1.000000 
2703 	 C 	 24.043986 	 11.190363 	 24.349944 	 C 	 1  ala 	 1.000000 
2704 	 C 	 24.475695 	 12.013522 	 23.981112 	 C 	 1  ala 	 1.000000 
2705 	 C 	 24.646095 	 12.458248 	 24.860420 	 C 	 1  ala 	 1.000000 
2706 	 C 	 24.558449 	 12.726744 	 23.901135 	 C 	 1  ala 	 1.000000 
2707 	 C 	 24.057843 	 11.881079 	 24.086188 	 C 	 1  ala 	 1.000000 
2708 	 C 	 24.537676 	 11.039877 	 24.335467 	 C 	 1  ala 	 1.000000 
2709 	 C 	 24.282460 	 10.361732 	 25.024657 	 C 	 1  ala 	 1.000000 
2710 	 C 	 23.529798 	 10.753065 	 25.554146 	 C 	 1  ala 	 1.000000 
2711 	 C 	 23.459317 	 10.686249 	 26.549419 	 C 	 1  ala 	 1.000000 
2712 	 C 	 22.844202 	 10.573279 	 27.329720 	 C 	 1  ala 	 1.000000 
2713 	 C 	 23.402941 	 11.202722 	 26.789710 	 C 	 1  ala 	 1.000000 
2714 	 C 	 23.932925 	 11.429264 	 27.606898 	 C 	 1  ala 	 1.000000 
2715 	 C 	 24.824155 	 11.878924 	 27.666181 	 C 	 1  ala 	 1.000000 
2716 	 C 	 25.645956 	 12.372137 	 27.380901 	 C 	 1  ala 	 1.000000 
2717 	 C 	 24.935842 	 12.406404 	 28.084154 	 C 	 1  ala 	 1.000000 
2718 	 C 	 25.572674 	 13.099740 	 28.421391 	 C 	 1  ala 	 1.000000 
2719 	 C 	 25.650985 	 12.152084 	 28.730931 	 C 	 1  ala 	 1.000000 
2720 	 C 	 25.142616 	 12.398893 	 27.905918 	 C 	 1  ala 	 1.000000 
2721 	 C 	 24.907121 	 11.480957 	 28.225193 	 C 	 1  ala 	 1.000000 
2722 	 C 	 23.967539 	 11.355129 	 27.906833 	 C 	 1  ala 	 1.000000 
2723 	 C 	 23.647890 	 12.060918 	 27.274625 	 C 	 1  ala 	 1.000000 
2724 	 C 	 23.284867 	 12.287007 	 26.370691 	 C 	 1  ala 	 1.000000 
2725 	 C 	 23.086371 	 12.381642 	 27.346213 	 C 	 1  ala 	 1.000000 
2726 	 C 	 23.377471 	 11.958407 	 26.488231 	 C 	 1  ala 	 1.000000 
2727 	 C 	 23.445308 	 11.136106 	 25.923236 	 C 	 1  ala 	 1.000000 
2728 	 C 	 24.421270 	 11.262849 	 25.745937 	 C 	 1  ala 	 1.000000 
2729 	 C 	 24.242009 	 11.015019 	 24.793863 	 C 	 1  ala 	 1.000000 
2730 	 C 	 24.396486 	 11.645977 	 25.554145 	 C 	 1  ala 	 1.000000 
2731 	 C 	 24.659294 	 12.356256 	 24.901125 	 C 	 1  ala 	 1.000000 
2732 	 C 	 24.015693 	 12.263749 	 25.660875 	 C 	 1  ala 	 1.000000 
2733 	 C 	 23.833250 	 12.359467 	 26.639421 	 C 	 1  ala 	 1.000000 
2734 	 C 	 24.604009 	 11.781074 	 26.372225 	 C 	 1  ala 	 1.000000 
2735 	 C 	 25.563907 	 11.773008 	 26.091991 	 C 	 1  ala 	 1.000000 
2736 	 C 	 24.737602 	 12.300847 	 26.288478 	 C 	 1  ala 	 1.000000 
2737 	 C 	 24.303361 	 13.028210 	 25.757085 	 C 	 1  ala 	 1.000000 
2738 	 C 	 24.247120 	 12.751865 	 24.797674 	 C 	 1  ala 	 1.000000 
2739 	 C 	 24.648972 	 13.431389 	 24.183865 	 C 	 1  ala 	 1.000000 
2740 	 C 	 25.475802 	 13.058694 	 24.605112 	 C 	 1  ala 	 1.000000 
2741 	 C 	 25.985890 	 13.890018 	 24.825817 	 C 	 1  ala 	 1.000000 
2742 	 C 	 26.621535 	 13.914221 	 25.597419 	 C 	 1  ala 	 1.000000 
2743 	 C 	 25.673038 	 14.182500 	 25.428958 	 C 	 1  ala 	 1.000000 
2744 	 C 	 26.182497 	 13.325157 	 25.355373 	 C 	 1  ala 	 1.000000 
2745 	 C 	 26.145259 	 12.923362 	 24.440401 	 C 	 1  ala 	 1.000000 
2746 	 C 	 25.850264 	 12.536768 	 23.566603 	 C 	 1  ala 	 1.000000 
2747 	 C 	 26.607678 	 12.528903 	 22.913716 	 C 	 1  ala 	 1.000000 
2748 	 C 	 25.752122 	 12.082042 	 23.175132 	 C 	 1  ala 	 1.000000 
2749 	 C 	 24.960222 	 12.228122 	 22.582211 	 C 	 1  ala 	 1.000000 
2750 	 C 	 24.205550 	 11.803820 	 22.081774 	 C 	 1  ala 	 1.000000 
2751 	 C 	 25.024841 	 11.296343 	 21.814886 	 C 	 1  ala 	 1.000000 
2752 	 C 	 25.562611 	 12.099301 	 22.071912 	 C 	 1  ala 	 1.000000 
2753 	 C 	 25.569358 	 12.399587 	 21.118087 	 C 	 1  ala 	 1.000000 
2754 	 C 	 24.575573 	 12.448938 	 21.217863 	 C 	 1  ala 	 1.000000 
2755 	 C 	 23.959826 	 11.697596 	 20.980500 	 C 	 1  ala 	 1.000000 
2756 	 C 	 23.829535 	 12.615974 	 20.606859 	 C 	 1  ala 	 1.000000 
2757 	 C 	 24.480225 	 13.230477 	 20.160778 	 C 	 1  ala 	 1.000000 
2758 	 C 	 24.159934 	 13.448309 	 19.238844 	 C 	 1  ala 	 1.000000 
2759 	 C 	 23.501628 	 14.189387 	 19.370889 	 C 	 1  ala 	 1.000000 
2760 	 C 	 24.432154 	 14.555467 	 19.360528 	 C 	 1  ala 	 1.000000 
2761 	 C 	 24.169010 	 15.184886 	 18.629374 	 C 	 1  ala 	 1.000000 
2762 	 C 	 23.601662 	 14.377441 	 18.791080 	 C 	 1  ala 	 1.000000 
2763 	 C 	 23.363329 	 14.463555 	 17.823722 	 C 	 1  ala 	 1.000000 
2764 	 C 	 23.639223 	 14.798882 	 16.922923 	 C 	 1  ala 	 1.000000 
2765 	 C 	 24.459068 	 14.455886 	 17.381408 	 C 	 1  ala 	 1.000000 
2766 	 C 	 23.637919 	 13.894523 	 17.278520 	 C 	 1  ala 	 1.000000 
2767 	 C 	 23.908894 	 14.466176 	 18.052977 	 C 	 1  ala 	 1.000000 
2768 	 C 	 24.732936 	 14.234641 	 17.535922 	 C 	 1  ala 	 1.000000 
2769 	 C 	 23.835960 	 13.811346 	 17.663423 	 C 	 1  ala 	 1.000000 
2770 	 C 	 23.843053 	 13.454030 	 18.597380 	 C 	 1  ala 	 1.000000 
2771 	 C 	 24.159895 	 14.011667 	 17.830143 	 C 	 1  ala 	 1.000000 
2772 	 C 	 23.254625 	 14.283785 	 18.156392 	 C 	 1  ala 	 1.000000 
2773 	 C 	 23.560821 	 15.007652 	 17.538119 	 C 	 1  ala 	 1.000000 
2774 	 C 	 24.484526 	 14.759732 	 17.246051 	 C 	 1  ala 	 1.000000 
2775 	 C 	 24.529670 	 14.973707 	 16.270255 	 C 	 1  ala 	 1.000000 
2776 	 C 	 25.325980 	 14.385634 	 16.411889 	 C 	 1  ala 	 1.000000 
2777 	 C 	 25.683816 	 14.158304 	 17.317579 	 C 	 1  ala 	 1.000000 
2778 	 C 	 25.661791 	 15.085037 	 16.942503 	 C 	 1  ala 	 1.000000 
2779 	 C 	 26.048885 	 15.945874 	 17.272832 	 C 	 1  ala 	 1.000000 
2780 	 C 	 25.759582 	 16.686165 	 17.879687 	 C 	 1  ala 	 1.000000 
2781 	 C 	 25.158880 	 16.682199 	 17.080224 	 C 	 1  ala 	 1.000000 
2782 	 C 	 24.751647 	 16.259196 	 17.889687 	 C 	 1  ala 	 1.000000 
2783 	 C 	 25.330082 	 15.993849 	 18.661052 	 C 	 1  ala 	 1.000000 
2784 	 C 	 25.145517 	 15.815206 	 17.694603 	 C 	 1  ala 	 1.000000 
2785 	 C 	 24.206499 	 15.858604 	 18.035721 	 C 	 1  ala 	 1.000000 
2786 	 C 	 24.536116 	 16.636489 	 18.570742 	 C 	 1  ala 	 1.000000 
2787 	 C 	 23.873866 	 16.143401 	 19.134912 	 C 	 1  ala 	 1.000000 
2788 	 C 	 23.221285 	 15.411209 	 18.939890 	 C 	 1  ala 	 1.000000 
2789 	 C 	 22.734223 	 14.548094 	 18.806461 	 C 	 1  ala 	 1.000000 
2790 	 C 	 22.867151 	 15.041271 	 19.666174 	 C 	 1  ala 	 1.000000 
2791 	 C 	 22.214247 	 14.285642 	 19.718534 	 C 	 1  ala 	 1.000000 
2792 	 C 	 23.048179 	 14.041051 	 19.223830 	 C 	 1  ala 	 1.000000 
2793 	 C 	 22.332019 	 13.343128 	 19.227933 	 C 	 1  ala 	 1.000000 
2794 	 C 	 22.418593 	 12.751390 	 20.029401 	 C 	 1  ala 	 1.000000 
2795 	 C 	 22.750478 	 12.447065 	 19.136519 	 C 	 1  ala 	 1.000000 
2796 	 C 	 23.492415 	 11.776635 	 19.129149 	 C 	 1  ala 	 1.000000 
2797 	 C 	 23.893931 	 11.113472 	 18.497486 	 C 	 1  ala 	 1.000000 
2798 	 C 	 23.521864 	 11.019989 	 19.420972 	 C 	 1  ala 	 1.000000 
2799 	 C 	 22.999841 	 10.955823 	 18.570458 	 C 	 1  ala 	 1.000000 
2800 	 C 	 22.056963 	 11.242306 	 18.740488 	 C 	 1  ala 	 1.000000 
2801 	 C 	 21.867872 	 10.287075 	 18.512940 	 C 	 1  ala 	 1.000000 
2802 	 C 	 22.551432 	 9.775123 	 19.033180 	 C 	 1  ala 	 1.000000 
2803 	 C 	 23.285861 	 9.976352 	 18.385013 	 C 	 1  ala 	 1.000000 
2804 	 C 	 23.113587 	 10.704866 	 17.721997 	 C 	 1  ala 	 1.000000 
2805 	 C 	 23.089854 	 9.978273 	 17.035339 	 C 	 1  ala 	 1.000000 
2806 	 C 	 22.666878 	 9.491160 	 17.799415 	 C 	 1  ala 	 1.000000 
2807 	 C 	 23.628161 	 9.613884 	 18.046140 	 C 	 1  ala 	 1.000000 
2808 	 C 	 22.961018 	 9.204458 	 18.668466 	 C 	 1  ala 	 1.000000 
2809 	 C 	 23.136005 	 8.232781 	 18.509646 	 C 	 1  ala 	 1.000000 
2810 	 C 	 22.294846 	 8.755150 	 18.649580 	 C 	 1  ala 	 1.000000 
2811 	 C 	 22.737049 	 7.859711 	 18.701003 	 C 	 1  ala 	 1.000000 
2812 	 C 	 23.082162 	 6.921163 	 18.705880 	 C 	 1  ala 	 1.000000 
2813 	 C 	 23.995641 	 7.285393 	 18.887242 	 C 	 1  ala 	 1.000000 
2814 	 C 	 24.024077 	 7.232321 	 19.885428 	 C 	 1  ala 	 1.000000 
2815 	 C 	 23.138392 	 7.559559 	 19.556070 	 C 	 1  ala 	 1.000000 
2816 	 C 	 23.610527 	 8.344181 	 19.957887 	 C 	 1  ala 	 1.000000 
2817 	 C 	 24.112210 	 9.111385 	 19.558247 	 C 	 1  ala 	 1.000000 
2818 	 C 	 24.337527 	 9.327037 	 20.508366 	 C 	 1  ala 	 1.000000 
2819 	 C 	 24.886661 	 8.575712 	 20.874375 	 C 	 1  ala 	 1.000000 
2820 	 C 	 25.255381 	 9.445657 	 20.546898 	 C 	 1  ala 	 1.000000 
2821 	 C 	 25.047950 	 9.758796 	 21.473675 	 C 	 1  ala 	 1.000000 
2822 	 C 	 24.587366 	 9.052339 	 20.936293 	 C 	 1  ala 	 1.000000 
2823 	 C 	 24.506339 	 9.654721 	 20.142209 	 C 	 1  ala 	 1.000000 
2824 	 C 	 24.993575 	 9.804247 	 19.281835 	 C 	 1  ala 	 1.000000 
2825 	 C 	 25.430978 	 9.542595 	 20.142193 	 C 	 1  ala 	 1.000000 
2826 	 C 	 25.532303 	 10.400498 	 20.645915 	 C 	 1  ala 	 1.000000 
2827 	 C 	 25.487862 	 10.815483 	 19.737173 	 C 	 1  ala 	 1.000000 
2828 	 C 	 24.966764 	 10.201202 	 20.329723 	 C 	 1  ala 	 1.000000 
2829 	 C 	 24.767409 	 9.416526 	 19.742747 	 C 	 1  ala 	 1.000000 
2830 	 C 	 25.499943 	 9.691309 	 19.119940 	 C 	 1  ala 	 1.000000 
2831 	 C 	 25.407891 	 9.389129 	 18.171144 	 C 	 1  ala 	 1.000000 
2832 	 C 	 25.465296 	 10.220591 	 18.723752 	 C 	 1  ala 	 1.000000 
2833 	 C 	 25.464575 	 11.217109 	 18.807124 	 C 	 1  ala 	 1.000000 
2834 	 C 	 25.942200 	 10.548809 	 19.377430 	 C 	 1  ala 	 1.000000 
2835 	 C 	 25.299011 	 10.678352 	 18.622760 	 C 	 1  ala 	 1.000000 
2836 	 C 	 24.882169 	 11.576730 	 18.761177 	 C 	 1  ala 	 1.000000 
2837 	 C 	 25.870755 	 11.437665 	 18.703220 	 C 	 1  ala 	 1.000000 
2838 	 C 	 26.072875 	 12.083736 	 17.967190 	 C 	 1  ala 	 1.000000 
2839 	 C 	 25.624848 	 11.482332 	 18.628693 	 C 	 1  ala 	 1.000000 
2840 	 C 	 25.570246 	 11.132689 	 19.563983 	 C 	 1  ala 	 1.000000 
2841 	 C 	 26.393439 	 10.681347 	 19.219536 	 C 	 1  ala 	 1.000000 
2842 	 C 	 26.080819 	 11.370631 	 19.873108 	 C 	 1  ala 	 1.000000 
2843 	 C 	 26.214673 	 11.124066 	 20.832946 	 C 	 1  ala 	 1.000000 
2844 	 C 	 26.846489 	 10.477763 	 21.260850 	 C 	 1  ala 	 1.000000 
2845 	 C 	 26.296397 	 9.670863 	 21.476048 	 C 	 1  ala 	 1.000000 
2846 	 C 	 26.052605 	 9.487239 	 22.428334 	 C 	 1  ala 	 1.000000 
2847 	 C 	 25.224765 	 9.261325 	 21.914871 	 C 	 1  ala 	 1.000000 
2848 	 C 	 25.091097 	 9.445051 	 22.888718 	 C 	 1  ala 	 1.000000 
2849 	 C 	 24.382854 	 10.150974 	 22.896724 	 C 	 1  ala 	 1.000000 
2850 	 C 	 23.704473 	 9.649045 	 22.360193 	 C 	 1  ala 	 1.000000 
2851 	 C 	 24.099415 	 8.927482 	 22.928847 	 C 	 1  ala 	 1.000000 
2852 	 C 	 24.476664 	 8.744935 	 22.020905 	 C 	 1  ala 	 1.000000 
2853 	 C 	 24.448877 	 9.412042 	 21.276461 	 C 	 1  ala 	 1.000000 
2854 	 C 	 25.283146 	 9.908086 	 21.517159 	 C 	 1  ala 	 1.000000 
2855 	 C 	 25.677861 	 9.496907 	 22.338823 	 C 	 1  ala 	 1.000000 
2856 	 C 	 26.073950 	 9.950365 	 21.540392 	 C 	 1  ala 	 1.000000 
2857 	 C 	 26.933946 	 10.239516 	 21.960866 	 C 	 1  ala 	 1.000000 
2858 	 C 	 27.834693 	 10.665713 	 22.044594 	 C 	 1  ala 	 1.000000 
2859 	 C 	 27.133853 	 11.242578 	 22.464177 	 C 	 1  ala 	 1.000000 
2860 	 C 	 26.240683 	 11.024711 	 22.070756 	 C 	 1  ala 	 1.000000 
2861 	 C 	 26.627611 	 11.177938 	 22.980046 	 C 	 1  ala 	 1.000000 
2862 	 C 	 26.028673 	 11.338462 	 23.764588 	 C 	 1  ala 	 1.000000 
2863 	 C 	 26.983486 	 11.041381 	 23.755857 	 C 	 1  ala 	 1.000000 
2864 	 C 	 26.677702 	 11.976015 	 23.937398 	 C 	 1  ala 	 1.000000 
2865 	 C 	 27.615928 	 11.771117 	 24.216233 	 C 	 1  ala 	 1.000000 
2866 	 C 	 27.563098 	 12.639157 	 23.722557 	 C 	 1  ala 	 1.000000 
2867 	 C 	 27.579398 	 12.731320 	 24.718167 	 C 	 1  ala 	 1.000000 
2868 	 C 	 27.957719 	 11.871361 	 24.375613 	 C 	 1  ala 	 1.000000 
2869 	 C 	 26.972263 	 11.779204 	 24.518378 	 C 	 1  ala 	 1.000000 
2870 	 C 	 27.780566 	 11.770780 	 23.929671 	 C 	 1  ala 	 1.000000 
2871 	 C 	 26.803133 	 11.962096 	 24.019250 	 C 	 1  ala 	 1.000000 
2872 	 C 	 27.269850 	 12.655232 	 23.469943 	 C 	 1  ala 	 1.000000 
2873 	 C 	 26.382028 	 12.563557 	 23.920906 	 C 	 1  ala 	 1.000000 
2874 	 C 	 26.171494 	 11.903259 	 23.200016 	 C 	 1  ala 	 1.000000 
2875 	 C 	 26.168771 	 11.216671 	 22.472974 	 C 	 1  ala 	 1.000000 
2876 	 C 	 26.502554 	 12.154639 	 22.379137 	 C 	 1  ala 	 1.000000 
2877 	 C 	 26.413065 	 12.673468 	 23.229319 	 C 	 1  ala 	 1.000000 
2878 	 C 	 25.867148 	 11.878850 	 22.963692 	 C 	 1  ala 	 1.000000 
2879 	 C 	 26.409810 	 12.203192 	 22.188888 	 C 	 1  ala 	 1.000000 
2880 	 C 	 25.658525 	 12.480843 	 21.590155 	 C 	 1  ala 	 1.000000 
2881 	 C 	 25.733639 	 11.520977 	 21.860367 	 C 	 1  ala 	 1.000000 
2882 	 C 	 25.852697 	 12.302215 	 22.473140 	 C 	 1  ala 	 1.000000 
2883 	 C 	 25.514458 	 11.403382 	 22.751875 	 C 	 1  ala 	 1.000000 
2884 	 C 	 25.968476 	 12.235501 	 23.070380 	 C 	 1  ala 	 1.000000 
2885 	 C 	 25.942772 	 11.557299 	 23.804806 	 C 	 1  ala 	 1.000000 
2886 	 C 	 25.782629 	 11.449121 	 22.823658 	 C 	 1  ala 	 1.000000 
2887 	 C 	 26.368622 	 10.695428 	 22.526070 	 C 	 1  ala 	 1.000000 
2888 	 C 	 27.155234 	 10.441198 	 23.088750 	 C 	 1  ala 	 1.000000 
2889 	 C 	 27.545045 	 10.288719 	 23.996934 	 C 	 1  ala 	 1.000000 
2890 	 C 	 28.490368 	 10.146976 	 23.703211 	 C 	 1  ala 	 1.000000 
2891 	 C 	 29.363531 	 10.527645 	 23.398781 	 C 	 1  ala 	 1.000000 
2892 	 C 	 29.159051 	 10.407371 	 24.370234 	 C 	 1  ala 	 1.000000 
2893 	 C 	 29.143860 	 11.350873 	 24.701252 	 C 	 1  ala 	 1.000000 
2894 	 C 	 29.690246 	 12.121930 	 24.374245 	 C 	 1  ala 	 1.000000 
2895 	 C 	 29.151352 	 11.782829 	 25.145351 	 C 	 1  ala 	 1.000000 
2896 	 C 	 29.030049 	 11.498789 	 26.096459 	 C 	 1  ala 	 1.000000 
2897 	 C 	 28.925444 	 11.787793 	 25.144864 	 C 	 1  ala 	 1.000000 
2898 	 C 	 29.788816 	 11.396141 	 25.462979 	 C 	 1  ala 	 1.000000 
2899 	 C 	 30.153474 	 12.117021 	 24.873611 	 C 	 1  ala 	 1.000000 
2900 	 C 	 30.523136 	 12.897440 	 25.377890 	 C 	 1  ala 	 1.000000 
2901 	 C 	 30.263544 	 12.228883 	 26.074771 	 C 	 1  ala 	 1.000000 
2902 	 C 	 29.530398 	 12.514356 	 26.692024 	 C 	 1  ala 	 1.000000 
2903 	 C 	 28.790121 	 12.198568 	 27.285546 	 C 	 1  ala 	 1.000000 
2904 	 C 	 28.772809 	 12.593645 	 28.204031 	 C 	 1  ala 	 1.000000 
2905 	 C 	 29.496658 	 12.861385 	 27.568141 	 C 	 1  ala 	 1.000000 
2906 	 C 	 28.844303 	 13.597389 	 27.387222 	 C 	 1  ala 	 1.000000 
2907 	 C 	 29.741930 	 13.831413 	 27.760718 	 C 	 1  ala 	 1.000000 
2908 	 C 	 29.353311 	 14.557465 	 27.193422 	 C 	 1  ala 	 1.000000 
2909 	 C 	 29.447900 	 14.005601 	 26.364870 	 C 	 1  ala 	 1.000000 
2910 	 C 	 29.267154 	 13.028328 	 26.254105 	 C 	 1  ala 	 1.000000 
2911 	 C 	 29.994340 	 13.484654 	 26.766909 	 C 	 1  ala 	 1.000000 
2912 	 C 	 29.266076 	 13.749838 	 26.134999 	 C 	 1  ala 	 1.000000 
2913 	 C 	 28.648480 	 13.994847 	 25.387640 	 C 	 1  ala 	 1.000000 
2914 	 C 	 28.792980 	 14.174100 	 24.414507 	 C 	 1  ala 	 1.000000 
2915 	 C 	 28.644951 	 14.190236 	 25.403358 	 C 	 1  ala 	 1.000000 
2916 	 C 	 29.574504 	 14.543809 	 25.507841 	 C 	 1  ala 	 1.000000 
2917 	 C 	 28.831059 	 14.407796 	 24.853021 	 C 	 1  ala 	 1.000000 
2918 	 C 	 29.151993 	 15.325470 	 25.087274 	 C 	 1  ala 	 1.000000 
2919 	 C 	 28.342261 	 15.483639 	 25.652355 	 C 	 1  ala 	 1.000000 
2920 	 C 	 27.945297 	 15.302658 	 26.552169 	 C 	 1  ala 	 1.000000 
2921 	 C 	 27.851626 	 16.042766 	 27.218101 	 C 	 1  ala 	 1.000000 
2922 	 C 	 27.130181 	 16.521951 	 27.717998 	 C 	 1  ala 	 1.000000 
2923 	 C 	 26.232385 	 16.960069 	 27.673093 	 C 	 1  ala 	 1.000000 
2924 	 C 	 25.233410 	 16.919307 	 27.692753 	 C 	 1  ala 	 1.000000 
2925 	 C 	 25.632987 	 16.030352 	 27.916575 	 C 	 1  ala 	 1.000000 
2926 	 C 	 24.694827 	 16.149163 	 27.591400 	 C 	 1  ala 	 1.000000 
2927 	 C 	 24.780123 	 15.919364 	 28.560894 	 C 	 1  ala 	 1.000000 
2928 	 C 	 25.366064 	 15.124496 	 28.718559 	 C 	 1  ala 	 1.000000 
2929 	 C 	 24.837856 	 14.998073 	 27.878909 	 C 	 1  ala 	 1.000000 
2930 	 C 	 24.907291 	 15.952553 	 27.588829 	 C 	 1  ala 	 1.000000 
2931 	 C 	 25.489327 	 16.622579 	 27.128069 	 C 	 1  ala 	 1.000000 
2932 	 C 	 25.438577 	 15.876341 	 26.464328 	 C 	 1  ala 	 1.000000 
2933 	 C 	 25.068430 	 15.542863 	 25.597273 	 C 	 1  ala 	 1.000000 
2934 	 C 	 25.256620 	 16.132065 	 26.383037 	 C 	 1  ala 	 1.000000 
2935 	 C 	 24.549181 	 15.608226 	 25.908566 	 C 	 1  ala 	 1.000000 
2936 	 C 	 24.769891 	 16.582325 	 25.957754 	 C 	 1  ala 	 1.000000 
2937 	 C 	 25.670152 	 17.003067 	 25.845926 	 C 	 1  ala 	 1.000000 
2938 	 C 	 25.645973 	 16.849380 	 26.833749 	 C 	 1  ala 	 1.000000 
2939 	 C 	 26.508094 	 17.327137 	 26.664947 	 C 	 1  ala 	 1.000000 
2940 	 C 	 26.627292 	 18.283812 	 26.399305 	 C 	 1  ala 	 1.000000 
2941 	 C 	 26.397091 	 19.250199 	 26.284836 	 C 	 1  ala 	 1.000000 
2942 	 C 	 25.412425 	 19.405379 	 26.205148 	 C 	 1  ala 	 1.000000 
2943 	 C 	 25.213013 	 20.359118 	 26.430131 	 C 	 1  ala 	 1.000000 
2944 	 C 	 25.382400 	 20.687067 	 25.500745 	 C 	 1  ala 	 1.000000 
2945 	 C 	 26.138373 	 20.137969 	 25.144380 	 C 	 1  ala 	 1.000000 
2946 	 C 	 25.222158 	 19.812833 	 25.378556 	 C 	 1  ala 	 1.000000 
2947 	 C 	 25.875921 	 19.507018 	 26.070705 	 C 	 1  ala 	 1.000000 
2948 	 C 	 26.759819 	 19.974697 	 26.069665 	 C 	 1  ala 	 1.000000 
2949 	 C 	 27.044352 	 19.018476 	 26.138092 	 C 	 1  ala 	 1.000000 
2950 	 C 	 27.639898 	 19.817484 	 26.221225 	 C 	 1  ala 	 1.000000 
2951 	 C 	 26.858760 	 20.089476 	 25.659225 	 C 	 1  ala 	 1.000000 
2952 	 C 	 26.608596 	 20.448291 	 26.558486 	 C 	 1  ala 	 1.000000 
2953 	 C 	 26.764430 	 19.831347 	 25.787061 	 C 	 1  ala 	 1.000000 
2954 	 C 	 26.493903 	 18.898103 	 26.023431 	 C 	 1  ala 	 1.000000 
2955 	 C 	 27.240763 	 18.606743 	 25.425678 	 C 	 1  ala 	 1.000000 
2956 	 C 	 26.871048 	 19.528734 	 25.310598 	 C 	 1  ala 	 1.000000 
2957 	 C 	 27.598813 	 19.987839 	 25.820089 	 C 	 1  ala 	 1.000000 
2958 	 C 	 28.014814 	 20.224056 	 24.941941 	 C 	 1  ala 	 1.000000 
2959 	 C 	 27.923670 	 19.257585 	 24.701886 	 C 	 1  ala 	 1.000000 
2960 	 C 	 28.898085 	 19.384888 	 24.887117 	 C 	 1  ala 	 1.000000 
2961 	 C 	 29.449424 	 19.920387 	 25.526856 	 C 	 1  ala 	 1.000000 
2962 	 C 	 29.401871 	 19.238787 	 26.257034 	 C 	 1  ala 	 1.000000 
2963 	 C 	 29.520424 	 20.209445 	 26.466246 	 C 	 1  ala 	 1.000000 
2964 	 C 	 28.701729 	 20.168833 	 27.039037 	 C 	 1  ala 	 1.000000 
2965 	 C 	 27.853454 	 20.697163 	 27.003018 	 C 	 1  ala 	 1.000000 
2966 	 C 	 28.150592 	 21.147877 	 26.161254 	 C 	 1  ala 	 1.000000 
2967 	 C 	 28.487905 	 21.705947 	 26.919394 	 C 	 1  ala 	 1.000000 
2968 	 C 	 28.071402 	 20.796865 	 26.909658 	 C 	 1  ala 	 1.000000 
2969 	 C 	 27.189116 	 20.419411 	 26.628412 	 C 	 1  ala 	 1.000000 
2970 	 C 	 26.190346 	 20.379140 	 26.657339 	 C 	 1  ala 	 1.000000 
2971 	 C 	 25.913352 	 19.635685 	 26.048611 	 C 	 1  ala 	 1.000000 
2972 	 C 	 26.086866 	 20.578604 	 25.764361 	 C 	 1  ala 	 1.000000 
2973 	 C 	 25.273074 	 20.943947 	 26.216320 	 C 	 1  ala 	 1.000000 
2974 	 C 	 25.356577 	 21.584603 	 25.453046 	 C 	 1  ala 	 1.000000 
2975 	 C 	 25.431723 	 20.886238 	 26.164832 	 C 	 1  ala 	 1.000000 
2976 	 C 	 24.976904 	 21.207293 	 25.334131 	 C 	 1  ala 	 1.000000 
2977 	 C 	 24.945064 	 22.206606 	 25.353145 	 C 	 1  ala 	 1.000000 
2978 	 C 	 24.293669 	 22.936278 	 25.561141 	 C 	 1  ala 	 1.000000 
2979 	 C 	 25.242314 	 23.058290 	 25.853008 	 C 	 1  ala 	 1.000000 
2980 	 C 	 25.214658 	 23.788011 	 26.536194 	 C 	 1  ala 	 1.000000 
2981 	 C 	 24.436006 	 23.813247 	 25.909246 	 C 	 1  ala 	 1.000000 
2982 	 C 	 24.013985 	 22.907544 	 25.949262 	 C 	 1  ala 	 1.000000 
2983 	 C 	 23.278217 	 22.613283 	 25.339298 	 C 	 1  ala 	 1.000000 
2984 	 C 	 23.693322 	 23.263386 	 24.702861 	 C 	 1  ala 	 1.000000 
2985 	 C 	 24.475139 	 22.664564 	 24.876563 	 C 	 1  ala 	 1.000000 
2986 	 C 	 24.639536 	 22.203341 	 25.748485 	 C 	 1  ala 	 1.000000 
2987 	 C 	 24.519881 	 22.666345 	 26.626727 	 C 	 1  ala 	 1.000000 
2988 	 C 	 23.793538 	 22.878589 	 27.280469 	 C 	 1  ala 	 1.000000 
2989 	 C 	 23.725619 	 21.927944 	 27.583222 	 C 	 1  ala 	 1.000000 
2990 	 C 	 23.525561 	 21.036151 	 27.989033 	 C 	 1  ala 	 1.000000 
2991 	 C 	 24.352205 	 21.012758 	 27.426794 	 C 	 1  ala 	 1.000000 
2992 	 C 	 24.574728 	 21.943636 	 27.716533 	 C 	 1  ala 	 1.000000 
2993 	 C 	 24.023491 	 21.172351 	 27.398325 	 C 	 1  ala 	 1.000000 
2994 	 C 	 23.368843 	 21.796886 	 26.972424 	 C 	 1  ala 	 1.000000 
2995 	 C 	 23.112260 	 20.848862 	 27.160614 	 C 	 1  ala 	 1.000000 
2996 	 C 	 22.192853 	 21.147193 	 27.416911 	 C 	 1  ala 	 1.000000 
2997 	 C 	 22.870456 	 20.423503 	 27.286042 	 C 	 1  ala 	 1.000000 
2998 	 C 	 21.883222 	 20.582779 	 27.285844 	 C 	 1  ala 	 1.000000 
2999 	 C 	 22.481620 	 20.159234 	 27.965939 	 C 	 1  ala 	 1.000000 
3000 	 C 	 22.145067 	 21.079587 	 27.766736 	 C 	 1  ala 	 1.000000 
3001 	 C 	 22.931404 	 21.658112 	 27.983491 	 C 	 1  ala 	 1.000000 
3002 	 C 	 23.456012 	 20.905257 	 28.380978 	 C 	 1  ala 	 1.000000 
3003 	 C 	 23.205006 	 21.868760 	 28.287926 	 C 	 1  ala 	 1.000000 
3004 	 C 	 22.205575 	 21.835180 	 28.284777 	 C 	 1  ala 	 1.000000 
3005 	 C 	 23.169354 	 22.080598 	 28.389177 	 C 	 1  ala 	 1.000000 
3006 	 C 	 23.293155 	 21.119754 	 28.637074 	 C 	 1  ala 	 1.000000 
3007 	 C 	 23.459164 	 20.157923 	 28.419539 	 C 	 1  ala 	 1.000000 
3008 	 C 	 23.362834 	 19.185954 	 28.205071 	 C 	 1  ala 	 1.000000 
3009 	 C 	 22.771106 	 18.519948 	 27.750874 	 C 	 1  ala 	 1.000000 
3010 	 C 	 23.495244 	 18.655591 	 28.427058 	 C 	 1  ala 	 1.000000 
3011 	 C 	 22.650976 	 18.846354 	 27.926238 	 C 	 1  ala 	 1.000000 
3012 	 C 	 21.663972 	 18.867121 	 27.766891 	 C 	 1  ala 	 1.000000 
3013 	 C 	 21.186990 	 18.268883 	 27.122998 	 C 	 1  ala 	 1.000000 
3014 	 C 	 20.485420 	 17.833070 	 26.559202 	 C 	 1  ala 	 1.000000 
3015 	 C 	 20.785311 	 18.240144 	 27.421962 	 C 	 1  ala 	 1.000000 
3016 	 C 	 21.144786 	 18.721358 	 28.221469 	 C 	 1  ala 	 1.000000 
3017 	 C 	 21.331484 	 17.772224 	 28.475021 	 C 	 1  ala 	 1.000000 
3018 	 C 	 21.519571 	 17.336077 	 29.355021 	 C 	 1  ala 	 1.000000 
3019 	 C 	 21.874446 	 16.408141 	 29.241012 	 C 	 1  ala 	 1.000000 
3020 	 C 	 22.391441 	 16.625311 	 30.068994 	 C 	 1  ala 	 1.000000 
3021 	 C 	 22.892010 	 16.577423 	 30.933365 	 C 	 1  ala 	 1.000000 
3022 	 C 	 22.800292 	 17.150979 	 31.747380 	 C 	 1  ala 	 1.000000 
3023 	 C 	 22.680225 	 18.103428 	 32.027425 	 C 	 1  ala 	 1.000000 
3024 	 C 	 22.071744 	 17.693165 	 31.348134 	 C 	 1  ala 	 1.000000 
3025 	 C 	 22.401369 	 18.017732 	 30.461565 	 C 	 1  ala 	 1.000000 
3026 	 C 	 23.184039 	 18.638729 	 30.503865 	 C 	 1  ala 	 1.000000 
3027 	 C 	 23.150579 	 18.708003 	 29.506828 	 C 	 1  ala 	 1.000000 
3028 	 C 	 22.526631 	 18.301267 	 28.839553 	 C 	 1  ala 	 1.000000 
3029 	 C 	 22.342552 	 19.031748 	 28.181896 	 C 	 1  ala 	 1.000000 
3030 	 C 	 22.701774 	 19.905498 	 28.509797 	 C 	 1  ala 	 1.000000 
3031 	 C 	 22.542682 	 20.806870 	 28.912562 	 C 	 1  ala 	 1.000000 
3032 	 C 	 22.596105 	 21.657093 	 28.388857 	 C 	 1  ala 	 1.000000 
3033 	 C 	 21.824632 	 21.047220 	 28.207517 	 C 	 1  ala 	 1.000000 
3034 	 C 	 22.516368 	 21.758795 	 28.330653 	 C 	 1  ala 	 1.000000 
3035 	 C 	 23.166559 	 21.764487 	 29.090402 	 C 	 1  ala 	 1.000000 
3036 	 C 	 22.459516 	 21.218108 	 29.539356 	 C 	 1  ala 	 1.000000 
3037 	 C 	 22.995789 	 22.052699 	 29.413383 	 C 	 1  ala 	 1.000000 
3038 	 C 	 22.470000 	 22.595763 	 30.068079 	 C 	 1  ala 	 1.000000 
3039 	 C 	 21.566394 	 22.704541 	 29.653756 	 C 	 1  ala 	 1.000000 
3040 	 C 	 20.879875 	 23.430772 	 29.617972 	 C 	 1  ala 	 1.000000 
3041 	 C 	 21.254086 	 24.200897 	 30.134569 	 C 	 1  ala 	 1.000000 
3042 	 C 	 21.031877 	 24.625592 	 29.256926 	 C 	 1  ala 	 1.000000 
3043 	 C 	 21.979305 	 24.780404 	 29.536951 	 C 	 1  ala 	 1.000000 
3044 	 C 	 21.762493 	 24.551361 	 28.587987 	 C 	 1  ala 	 1.000000 
3045 	 C 	 21.483600 	 25.502285 	 28.453965 	 C 	 1  ala 	 1.000000 
3046 	 C 	 20.611191 	 25.484944 	 27.965497 	 C 	 1  ala 	 1.000000 
3047 	 C 	 20.895205 	 25.452478 	 28.923767 	 C 	 1  ala 	 1.000000 
3048 	 C 	 20.252196 	 24.688044 	 28.877081 	 C 	 1  ala 	 1.000000 
3049 	 C 	 20.073614 	 23.750896 	 28.577310 	 C 	 1  ala 	 1.000000 
3050 	 C 	 21.015612 	 23.479583 	 28.774871 	 C 	 1  ala 	 1.000000 
3051 	 C 	 20.234055 	 24.008534 	 28.444143 	 C 	 1  ala 	 1.000000 
3052 	 C 	 21.177751 	 24.022665 	 28.774655 	 C 	 1  ala 	 1.000000 
3053 	 C 	 20.878082 	 24.011476 	 27.820678 	 C 	 1  ala 	 1.000000 
3054 	 C 	 20.237139 	 24.293759 	 28.534476 	 C 	 1  ala 	 1.000000 
3055 	 C 	 19.400524 	 24.240123 	 27.989316 	 C 	 1  ala 	 1.000000 
3056 	 C 	 19.862434 	 23.645908 	 28.647761 	 C 	 1  ala 	 1.000000 
3057 	 C 	 20.738414 	 23.860340 	 28.215698 	 C 	 1  ala 	 1.000000 
3058 	 C 	 20.436379 	 24.778294 	 27.958532 	 C 	 1  ala 	 1.000000 
3059 	 C 	 20.286159 	 24.399052 	 28.871555 	 C 	 1  ala 	 1.000000 
3060 	 C 	 19.697495 	 24.339542 	 28.065370 	 C 	 1  ala 	 1.000000 
3061 	 C 	 19.138266 	 25.154762 	 27.914770 	 C 	 1  ala 	 1.000000 
3062 	 C 	 18.843237 	 25.007977 	 26.970624 	 C 	 1  ala 	 1.000000 
3063 	 C 	 18.884078 	 24.782303 	 27.943970 	 C 	 1  ala 	 1.000000 
3064 	 C 	 18.050434 	 25.297245 	 28.143645 	 C 	 1  ala 	 1.000000 
3065 	 C 	 17.298646 	 25.346719 	 27.486099 	 C 	 1  ala 	 1.000000 
3066 	 C 	 18.192154 	 25.669101 	 27.173508 	 C 	 1  ala 	 1.000000 
3067 	 C 	 17.696371 	 24.854915 	 27.475666 	 C 	 1  ala 	 1.000000 
3068 	 C 	 18.525951 	 25.024297 	 28.007742 	 C 	 1  ala 	 1.000000 
3069 	 C 	 18.901720 	 24.554062 	 27.209196 	 C 	 1  ala 	 1.000000 
3070 	 C 	 18.123899 	 23.926162 	 27.236315 	 C 	 1  ala 	 1.000000 
3071 	 C 	 18.926775 	 24.477626 	 27.462762 	 C 	 1  ala 	 1.000000 
3072 	 C 	 18.523854 	 25.382512 	 27.325519 	 C 	 1  ala 	 1.000000 
3073 	 C 	 18.570501 	 25.409716 	 26.326978 	 C 	 1  ala 	 1.000000 
3074 	 C 	 19.504934 	 25.191158 	 26.045792 	 C 	 1  ala 	 1.000000 
3075 	 C 	 20.425728 	 25.208598 	 26.435451 	 C 	 1  ala 	 1.000000 
3076 	 C 	 20.326754 	 24.334602 	 25.959703 	 C 	 1  ala 	 1.000000 
3077 	 C 	 19.942587 	 23.672852 	 26.603521 	 C 	 1  ala 	 1.000000 
3078 	 C 	 19.180141 	 24.296689 	 26.775290 	 C 	 1  ala 	 1.000000 
3079 	 C 	 20.125430 	 24.338110 	 26.451694 	 C 	 1  ala 	 1.000000 
3080 	 C 	 20.693750 	 24.894051 	 25.845112 	 C 	 1  ala 	 1.000000 
3081 	 C 	 21.686184 	 24.947599 	 25.955603 	 C 	 1  ala 	 1.000000 
3082 	 C 	 21.114997 	 25.553572 	 25.401941 	 C 	 1  ala 	 1.000000 
3083 	 C 	 20.345768 	 24.953440 	 25.621321 	 C 	 1  ala 	 1.000000 
3084 	 C 	 19.391768 	 25.232445 	 25.731046 	 C 	 1  ala 	 1.000000 
3085 	 C 	 19.804497 	 25.902594 	 25.114154 	 C 	 1  ala 	 1.000000 
3086 	 C 	 19.469410 	 26.367011 	 25.933931 	 C 	 1  ala 	 1.000000 
3087 	 C 	 18.482584 	 26.525854 	 25.964616 	 C 	 1  ala 	 1.000000 
3088 	 C 	 19.369661 	 26.592512 	 26.421398 	 C 	 1  ala 	 1.000000 
3089 	 C 	 19.958661 	 27.073219 	 25.771783 	 C 	 1  ala 	 1.000000 
3090 	 C 	 20.885081 	 26.850125 	 25.468509 	 C 	 1  ala 	 1.000000 
3091 	 C 	 21.274569 	 26.561292 	 24.593938 	 C 	 1  ala 	 1.000000 
3092 	 C 	 22.206323 	 26.918210 	 24.660605 	 C 	 1  ala 	 1.000000 
3093 	 C 	 21.697496 	 27.632824 	 25.140627 	 C 	 1  ala 	 1.000000 
3094 	 C 	 21.624209 	 28.362241 	 25.820760 	 C 	 1  ala 	 1.000000 
3095 	 C 	 21.883755 	 28.053604 	 26.735844 	 C 	 1  ala 	 1.000000 
3096 	 C 	 22.144036 	 27.689536 	 25.841579 	 C 	 1  ala 	 1.000000 
3097 	 C 	 21.387747 	 27.812743 	 25.199047 	 C 	 1  ala 	 1.000000 
3098 	 C 	 20.485064 	 27.936874 	 24.787036 	 C 	 1  ala 	 1.000000 
3099 	 C 	 21.077702 	 28.496054 	 24.207296 	 C 	 1  ala 	 1.000000 
3100 	 C 	 20.314152 	 28.336476 	 24.833018 	 C 	 1  ala 	 1.000000 
3101 	 C 	 19.942265 	 29.264422 	 24.857835 	 C 	 1  ala 	 1.000000 
3102 	 C 	 20.369836 	 29.040990 	 25.733770 	 C 	 1  ala 	 1.000000 
3103 	 C 	 19.743331 	 28.458237 	 26.251351 	 C 	 1  ala 	 1.000000 
3104 	 C 	 20.168817 	 27.580555 	 26.030815 	 C 	 1  ala 	 1.000000 
3105 	 C 	 20.813800 	 27.321612 	 26.749805 	 C 	 1  ala 	 1.000000 
3106 	 C 	 21.586279 	 27.537337 	 27.347081 	 C 	 1  ala 	 1.000000 
3107 	 C 	 21.564534 	 28.073209 	 28.191100 	 C 	 1  ala 	 1.000000 
3108 	 C 	 21.798272 	 28.800426 	 27.545715 	 C 	 1  ala 	 1.000000 
3109 	 C 	 20.984320 	 28.530812 	 28.060293 	 C 	 1  ala 	 1.000000 
3110 	 C 	 20.589801 	 28.899270 	 27.218513 	 C 	 1  ala 	 1.000000 
3111 	 C 	 19.843506 	 28.453064 	 27.712421 	 C 	 1  ala 	 1.000000 
3112 	 C 	 20.086462 	 27.612215 	 27.228743 	 C 	 1  ala 	 1.000000 
3113 	 C 	 19.985044 	 27.115534 	 28.090731 	 C 	 1  ala 	 1.000000 
3114 	 C 	 19.988890 	 26.169051 	 28.413462 	 C 	 1  ala 	 1.000000 
3115 	 C 	 19.051016 	 26.358125 	 28.704396 	 C 	 1  ala 	 1.000000 
3116 	 C 	 18.652735 	 26.454890 	 27.792251 	 C 	 1  ala 	 1.000000 
3117 	 C 	 19.241251 	 27.152845 	 28.200304 	 C 	 1  ala 	 1.000000 
3118 	 C 	 19.810681 	 26.543272 	 27.648788 	 C 	 1  ala 	 1.000000 
3119 	 C 	 18.985161 	 26.513449 	 27.085203 	 C 	 1  ala 	 1.000000 
3120 	 C 	 19.603488 	 26.274362 	 26.336531 	 C 	 1  ala 	 1.000000 
3121 	 C 	 19.367243 	 27.226768 	 26.143890 	 C 	 1  ala 	 1.000000 
3122 	 C 	 18.476323 	 27.680501 	 26.124200 	 C 	 1  ala 	 1.000000 
3123 	 C 	 18.636747 	 26.757238 	 26.473270 	 C 	 1  ala 	 1.000000 
3124 	 C 	 19.522428 	 26.591781 	 26.907082 	 C 	 1  ala 	 1.000000 
3125 	 C 	 18.541886 	 26.769095 	 26.822836 	 C 	 1  ala 	 1.000000 
3126 	 C 	 18.546882 	 27.594980 	 26.259019 	 C 	 1  ala 	 1.000000 
3127 	 C 	 19.086785 	 27.378326 	 25.445652 	 C 	 1  ala 	 1.000000 
3128 	 C 	 20.077013 	 27.253004 	 25.506829 	 C 	 1  ala 	 1.000000 
3129 	 C 	 19.671199 	 28.155212 	 25.652901 	 C 	 1  ala 	 1.000000 
3130 	 C 	 20.593695 	 27.814385 	 25.471684 	 C 	 1  ala 	 1.000000 
3131 	 C 	 20.302716 	 28.769865 	 25.520560 	 C 	 1  ala 	 1.000000 
3132 	 C 	 20.786722 	 28.145465 	 26.133637 	 C 	 1  ala 	 1.000000 
3133 	 C 	 21.236389 	 28.225256 	 25.244012 	 C 	 1  ala 	 1.000000 
3134 	 C 	 20.999321 	 27.273506 	 25.049152 	 C 	 1  ala 	 1.000000 
3135 	 C 	 20.466467 	 26.429801 	 24.984126 	 C 	 1  ala 	 1.000000 
3136 	 C 	 21.024566 	 27.258277 	 25.030520 	 C 	 1  ala 	 1.000000 
3137 	 C 	 21.697959 	 27.719357 	 25.608402 	 C 	 1  ala 	 1.000000 
3138 	 C 	 21.106029 	 26.955838 	 25.350219 	 C 	 1  ala 	 1.000000 
3139 	 C 	 21.394410 	 27.663228 	 24.704900 	 C 	 1  ala 	 1.000000 
3140 	 C 	 22.100036 	 28.286426 	 24.367680 	 C 	 1  ala 	 1.000000 
3141 	 C 	 22.953166 	 28.661942 	 24.005526 	 C 	 1  ala 	 1.000000 
3142 	 C 	 23.666521 	 28.590077 	 24.702634 	 C 	 1  ala 	 1.000000 
3143 	 C 	 23.407618 	 28.420786 	 25.653586 	 C 	 1  ala 	 1.000000 
3144 	 C 	 24.356672 	 28.712156 	 25.533587 	 C 	 1  ala 	 1.000000 
3145 	 C 	 24.212487 	 29.301818 	 24.738911 	 C 	 1  ala 	 1.000000 
3146 	 C 	 24.267618 	 29.464438 	 23.753764 	 C 	 1  ala 	 1.000000 
3147 	 C 	 23.977015 	 29.844562 	 22.875666 	 C 	 1  ala 	 1.000000 
3148 	 C 	 23.702800 	 29.244571 	 23.627209 	 C 	 1  ala 	 1.000000 
3149 	 C 	 24.305350 	 30.003267 	 23.379592 	 C 	 1  ala 	 1.000000 
3150 	 C 	 23.951698 	 30.604459 	 22.663004 	 C 	 1  ala 	 1.000000 
3151 	 C 	 24.214117 	 30.687280 	 21.701610 	 C 	 1  ala 	 1.000000 
3152 	 C 	 23.595155 	 31.464488 	 21.588329 	 C 	 1  ala 	 1.000000 
3153 	 C 	 24.239828 	 32.085740 	 21.142859 	 C 	 1  ala 	 1.000000 
3154 	 C 	 24.168300 	 32.438371 	 22.075883 	 C 	 1  ala 	 1.000000 
3155 	 C 	 23.410165 	 33.064601 	 22.257728 	 C 	 1  ala 	 1.000000 
3156 	 C 	 22.831028 	 33.046322 	 21.442703 	 C 	 1  ala 	 1.000000 
3157 	 C 	 22.721076 	 32.224319 	 22.001472 	 C 	 1  ala 	 1.000000 
3158 	 C 	 23.279102 	 31.398116 	 22.078910 	 C 	 1  ala 	 1.000000 
3159 	 C 	 22.407807 	 31.058227 	 22.432918 	 C 	 1  ala 	 1.000000 
3160 	 C 	 21.713149 	 30.923925 	 21.726226 	 C 	 1  ala 	 1.000000 
3161 	 C 	 20.729746 	 30.772957 	 21.625593 	 C 	 1  ala 	 1.000000 
3162 	 C 	 21.397590 	 31.149775 	 22.267460 	 C 	 1  ala 	 1.000000 
3163 	 C 	 21.811116 	 30.256062 	 22.441458 	 C 	 1  ala 	 1.000000 
3164 	 C 	 21.058495 	 29.600638 	 22.378368 	 C 	 1  ala 	 1.000000 
3165 	 C 	 21.660909 	 28.947583 	 22.837300 	 C 	 1  ala 	 1.000000 
3166 	 C 	 22.546555 	 29.059749 	 23.287909 	 C 	 1  ala 	 1.000000 
3167 	 C 	 23.496179 	 28.817453 	 23.486676 	 C 	 1  ala 	 1.000000 
3168 	 C 	 23.366253 	 29.742891 	 23.842606 	 C 	 1  ala 	 1.000000 
3169 	 C 	 24.030871 	 29.023369 	 23.641181 	 C 	 1  ala 	 1.000000 
3170 	 C 	 24.286376 	 28.097421 	 23.363084 	 C 	 1  ala 	 1.000000 
3171 	 C 	 23.967371 	 27.285539 	 22.874123 	 C 	 1  ala 	 1.000000 
3172 	 C 	 24.504142 	 28.095291 	 22.637101 	 C 	 1  ala 	 1.000000 
3173 	 C 	 25.031743 	 27.420506 	 23.153146 	 C 	 1  ala 	 1.000000 
3174 	 C 	 25.955488 	 27.103358 	 23.367883 	 C 	 1  ala 	 1.000000 
3175 	 C 	 25.205500 	 26.501450 	 23.093610 	 C 	 1  ala 	 1.000000 
3176 	 C 	 24.470517 	 26.090259 	 23.632795 	 C 	 1  ala 	 1.000000 
3177 	 C 	 24.649652 	 26.434249 	 24.554523 	 C 	 1  ala 	 1.000000 
3178 	 C 	 24.195256 	 27.171254 	 25.054871 	 C 	 1  ala 	 1.000000 
3179 	 C 	 24.417768 	 27.621992 	 25.919349 	 C 	 1  ala 	 1.000000 
3180 	 C 	 24.377448 	 28.564784 	 25.588413 	 C 	 1  ala 	 1.000000 
3181 	 C 	 23.451726 	 28.816090 	 25.871052 	 C 	 1  ala 	 1.000000 
3182 	 C 	 22.468292 	 28.953494 	 25.752828 	 C 	 1  ala 	 1.000000 
3183 	 C 	 22.126754 	 28.785831 	 26.677620 	 C 	 1  ala 	 1.000000 
3184 	 C 	 21.162270 	 28.812640 	 26.940397 	 C 	 1  ala 	 1.000000 
3185 	 C 	 20.892484 	 28.676314 	 27.893619 	 C 	 1  ala 	 1.000000 
3186 	 C 	 19.925437 	 28.556283 	 28.118148 	 C 	 1  ala 	 1.000000 
3187 	 C 	 20.810213 	 28.483785 	 27.657805 	 C 	 1  ala 	 1.000000 
3188 	 C 	 20.593942 	 29.241038 	 27.041529 	 C 	 1  ala 	 1.000000 
3189 	 C 	 20.688504 	 29.663364 	 27.943027 	 C 	 1  ala 	 1.000000 
3190 	 C 	 20.093001 	 30.421108 	 28.209859 	 C 	 1  ala 	 1.000000 
3191 	 C 	 19.551836 	 31.243655 	 28.035053 	 C 	 1  ala 	 1.000000 
3192 	 C 	 19.010093 	 31.406795 	 27.210493 	 C 	 1  ala 	 1.000000 
3193 	 C 	 19.596427 	 30.739171 	 27.669286 	 C 	 1  ala 	 1.000000 
3194 	 C 	 20.192468 	 30.102959 	 27.179421 	 C 	 1  ala 	 1.000000 
3195 	 C 	 19.654069 	 29.881327 	 27.992444 	 C 	 1  ala 	 1.000000 
3196 	 C 	 19.650630 	 29.483258 	 28.909793 	 C 	 1  ala 	 1.000000 
3197 	 C 	 19.963152 	 29.256259 	 27.987404 	 C 	 1  ala 	 1.000000 
3198 	 C 	 20.050502 	 30.174611 	 28.373407 	 C 	 1  ala 	 1.000000 
3199 	 C 	 19.357238 	 29.454136 	 28.356066 	 C 	 1  ala 	 1.000000 
3200 	 C 	 19.061289 	 29.242983 	 27.424493 	 C 	 1  ala 	 1.000000 
3201 	 C 	 19.528851 	 29.914888 	 26.850098 	 C 	 1  ala 	 1.000000 
3202 	 C 	 20.515227 	 30.033121 	 26.735717 	 C 	 1  ala 	 1.000000 
3203 	 C 	 20.620054 	 30.829311 	 26.139820 	 C 	 1  ala 	 1.000000 
3204 	 C 	 19.669164 	 30.519832 	 26.134364 	 C 	 1  ala 	 1.000000 
3205 	 C 	 19.060760 	 29.754424 	 25.924613 	 C 	 1  ala 	 1.000000 
3206 	 C 	 18.801793 	 28.793362 	 25.828195 	 C 	 1  ala 	 1.000000 
3207 	 C 	 17.862371 	 28.985947 	 25.544651 	 C 	 1  ala 	 1.000000 
3208 	 C 	 18.760474 	 28.558675 	 25.648816 	 C 	 1  ala 	 1.000000 
3209 	 C 	 19.172182 	 29.468442 	 25.701935 	 C 	 1  ala 	 1.000000 
3210 	 C 	 19.593177 	 29.414031 	 26.607365 	 C 	 1  ala 	 1.000000 
3211 	 C 	 19.688443 	 30.406653 	 26.532354 	 C 	 1  ala 	 1.000000 
3212 	 C 	 20.379965 	 30.214198 	 27.228600 	 C 	 1  ala 	 1.000000 
3213 	 C 	 20.236098 	 30.999148 	 27.831223 	 C 	 1  ala 	 1.000000 
3214 	 C 	 19.444371 	 30.737311 	 27.279309 	 C 	 1  ala 	 1.000000 
3215 	 C 	 20.150413 	 30.335870 	 26.695914 	 C 	 1  ala 	 1.000000 
3216 	 C 	 19.991627 	 31.316996 	 26.806274 	 C 	 1  ala 	 1.000000 
3217 	 C 	 19.962013 	 31.851214 	 27.651101 	 C 	 1  ala 	 1.000000 
3218 	 C 	 20.618956 	 31.456026 	 28.293170 	 C 	 1  ala 	 1.000000 
3219 	 C 	 20.253206 	 30.801885 	 28.955232 	 C 	 1  ala 	 1.000000 
3220 	 C 	 19.661523 	 31.353939 	 29.542724 	 C 	 1  ala 	 1.000000 
3221 	 C 	 19.676013 	 31.360458 	 30.542598 	 C 	 1  ala 	 1.000000 
3222 	 C 	 19.694174 	 31.069505 	 29.586033 	 C 	 1  ala 	 1.000000 
3223 	 C 	 19.067379 	 31.046136 	 30.364867 	 C 	 1  ala 	 1.000000 
3224 	 C 	 19.608098 	 30.905526 	 29.535498 	 C 	 1  ala 	 1.000000 
3225 	 C 	 19.950287 	 31.617535 	 28.922350 	 C 	 1  ala 	 1.000000 
3226 	 C 	 19.689724 	 31.263656 	 28.024086 	 C 	 1  ala 	 1.000000 
3227 	 C 	 20.235454 	 31.566845 	 27.242898 	 C 	 1  ala 	 1.000000 
3228 	 C 	 20.896242 	 32.281860 	 27.471176 	 C 	 1  ala 	 1.000000 
3229 	 C 	 20.721170 	 32.960338 	 26.757722 	 C 	 1  ala 	 1.000000 
3230 	 C 	 21.304796 	 33.320393 	 27.485554 	 C 	 1  ala 	 1.000000 
3231 	 C 	 20.684875 	 33.167102 	 26.716010 	 C 	 1  ala 	 1.000000 
3232 	 C 	 19.945471 	 32.549429 	 26.983895 	 C 	 1  ala 	 1.000000 
3233 	 C 	 20.688259 	 32.678354 	 27.640891 	 C 	 1  ala 	 1.000000 
3234 	 C 	 21.480956 	 32.130290 	 27.907834 	 C 	 1  ala 	 1.000000 
3235 	 C 	 21.589116 	 33.009078 	 28.372627 	 C 	 1  ala 	 1.000000 
3236 	 C 	 22.100497 	 33.787311 	 28.008151 	 C 	 1  ala 	 1.000000 
3237 	 C 	 21.687144 	 34.433188 	 27.366293 	 C 	 1  ala 	 1.000000 
3238 	 C 	 21.946514 	 34.863532 	 28.230891 	 C 	 1  ala 	 1.000000 
3239 	 C 	 22.882140 	 35.194182 	 28.354487 	 C 	 1  ala 	 1.000000 
3240 	 C 	 22.972531 	 34.843856 	 29.286743 	 C 	 1  ala 	 1.000000 
3241 	 C 	 22.789362 	 33.864158 	 29.368240 	 C 	 1  ala 	 1.000000 
3242 	 C 	 22.426673 	 34.790392 	 29.470940 	 C 	 1  ala 	 1.000000 
3243 	 C 	 23.373234 	 34.621076 	 29.745448 	 C 	 1  ala 	 1.000000 
3244 	 C 	 24.238487 	 35.000513 	 29.417783 	 C 	 1  ala 	 1.000000 
3245 	 C 	 25.027798 	 35.125941 	 30.018828 	 C 	 1  ala 	 1.000000 
3246 	 C 	 24.485630 	 34.983603 	 30.846955 	 C 	 1  ala 	 1.000000 
3247 	 C 	 24.610901 	 34.731868 	 29.887300 	 C 	 1  ala 	 1.000000 
3248 	 C 	 24.623424 	 33.759169 	 29.655568 	 C 	 1  ala 	 1.000000 
3249 	 C 	 25.058779 	 33.666736 	 30.551069 	 C 	 1  ala 	 1.000000 
3250 	 C 	 25.909129 	 34.057629 	 30.198779 	 C 	 1  ala 	 1.000000 
3251 	 C 	 26.472050 	 34.321144 	 29.415402 	 C 	 1  ala 	 1.000000 
3252 	 C 	 25.989478 	 34.896773 	 30.075535 	 C 	 1  ala 	 1.000000 
3253 	 C 	 25.422150 	 34.138972 	 30.397833 	 C 	 1  ala 	 1.000000 
3254 	 C 	 25.242196 	 35.122635 	 30.393071 	 C 	 1  ala 	 1.000000 
3255 	 C 	 25.950284 	 35.022771 	 31.092098 	 C 	 1  ala 	 1.000000 
3256 	 C 	 26.566328 	 35.256863 	 31.844222 	 C 	 1  ala 	 1.000000 
3257 	 C 	 27.281393 	 35.935330 	 31.675799 	 C 	 1  ala 	 1.000000 
3258 	 C 	 27.156034 	 35.357687 	 32.482406 	 C 	 1  ala 	 1.000000 
3259 	 C 	 27.302856 	 35.781120 	 33.376356 	 C 	 1  ala 	 1.000000 
3260 	 C 	 28.102652 	 35.712614 	 33.972707 	 C 	 1  ala 	 1.000000 
3261 	 C 	 28.703787 	 34.946529 	 34.200195 	 C 	 1  ala 	 1.000000 
3262 	 C 	 28.286943 	 34.054355 	 34.026224 	 C 	 1  ala 	 1.000000 
3263 	 C 	 28.692649 	 34.256045 	 34.917697 	 C 	 1  ala 	 1.000000 
3264 	 C 	 27.842237 	 34.060022 	 34.429460 	 C 	 1  ala 	 1.000000 
3265 	 C 	 27.997683 	 34.651313 	 35.220795 	 C 	 1  ala 	 1.000000 
3266 	 C 	 28.149756 	 33.664261 	 35.271809 	 C 	 1  ala 	 1.000000 
3267 	 C 	 27.562348 	 34.010103 	 34.540137 	 C 	 1  ala 	 1.000000 
3268 	 C 	 27.469332 	 34.401280 	 33.624534 	 C 	 1  ala 	 1.000000 
3269 	 C 	 28.058497 	 35.004139 	 33.086533 	 C 	 1  ala 	 1.000000 
3270 	 C 	 27.271176 	 35.620605 	 33.076718 	 C 	 1  ala 	 1.000000 
3271 	 C 	 26.687159 	 36.413132 	 32.901148 	 C 	 1  ala 	 1.000000 
3272 	 C 	 27.062555 	 35.973846 	 32.084994 	 C 	 1  ala 	 1.000000 
3273 	 C 	 26.199905 	 35.802604 	 31.609063 	 C 	 1  ala 	 1.000000 
3274 	 C 	 25.679687 	 36.656347 	 31.631316 	 C 	 1  ala 	 1.000000 
3275 	 C 	 26.468779 	 36.665593 	 32.245522 	 C 	 1  ala 	 1.000000 
3276 	 C 	 25.602560 	 36.332069 	 32.617581 	 C 	 1  ala 	 1.000000 
3277 	 C 	 26.394097 	 36.161934 	 32.030619 	 C 	 1  ala 	 1.000000 
3278 	 C 	 26.613327 	 36.196027 	 31.055542 	 C 	 1  ala 	 1.000000 
3279 	 C 	 26.547675 	 37.188942 	 31.154590 	 C 	 1  ala 	 1.000000 
3280 	 C 	 26.353136 	 36.209394 	 31.103194 	 C 	 1  ala 	 1.000000 
3281 	 C 	 26.015195 	 36.429865 	 30.188214 	 C 	 1  ala 	 1.000000 
3282 	 C 	 25.560228 	 36.913498 	 29.440481 	 C 	 1  ala 	 1.000000 
3283 	 C 	 26.109315 	 36.176977 	 29.045462 	 C 	 1  ala 	 1.000000 
3284 	 C 	 25.129224 	 36.347886 	 29.146510 	 C 	 1  ala 	 1.000000 
3285 	 C 	 24.627174 	 35.834642 	 28.450431 	 C 	 1  ala 	 1.000000 
3286 	 C 	 25.583726 	 36.018668 	 28.676580 	 C 	 1  ala 	 1.000000 
3287 	 C 	 24.721080 	 35.915924 	 28.181316 	 C 	 1  ala 	 1.000000 
3288 	 C 	 23.889218 	 36.055823 	 27.644256 	 C 	 1  ala 	 1.000000 
3289 	 C 	 23.591303 	 36.994534 	 27.817659 	 C 	 1  ala 	 1.000000 
3290 	 C 	 23.217288 	 37.732450 	 27.255883 	 C 	 1  ala 	 1.000000 
3291 	 C 	 23.163477 	 37.553506 	 26.273497 	 C 	 1  ala 	 1.000000 
3292 	 C 	 22.552795 	 36.762968 	 26.319511 	 C 	 1  ala 	 1.000000 
3293 	 C 	 22.633800 	 36.781742 	 27.316047 	 C 	 1  ala 	 1.000000 
3294 	 C 	 23.003078 	 36.194656 	 26.595656 	 C 	 1  ala 	 1.000000 
3295 	 C 	 23.034922 	 35.228914 	 26.853197 	 C 	 1  ala 	 1.000000 
3296 	 C 	 23.283541 	 36.098504 	 27.279813 	 C 	 1  ala 	 1.000000 
3297 	 C 	 22.889932 	 35.234889 	 26.964788 	 C 	 1  ala 	 1.000000 
3298 	 C 	 22.793423 	 34.239584 	 26.957523 	 C 	 1  ala 	 1.000000 
3299 	 C 	 22.253151 	 34.267250 	 27.798558 	 C 	 1  ala 	 1.000000 
3300 	 C 	 21.497268 	 33.852456 	 28.305103 	 C 	 1  ala 	 1.000000 
3301 	 C 	 21.584289 	 34.841086 	 28.182475 	 C 	 1  ala 	 1.000000 
3302 	 C 	 22.414051 	 34.615125 	 27.672145 	 C 	 1  ala 	 1.000000 
3303 	 C 	 22.010736 	 34.744256 	 26.766241 	 C 	 1  ala 	 1.000000 
3304 	 C 	 21.156967 	 34.426657 	 26.353676 	 C 	 1  ala 	 1.000000 
3305 	 C 	 20.540222 	 33.844374 	 25.823985 	 C 	 1  ala 	 1.000000 
3306 	 C 	 21.433316 	 33.652091 	 25.417277 	 C 	 1  ala 	 1.000000 
3307 	 C 	 21.641102 	 33.141520 	 24.582926 	 C 	 1  ala 	 1.000000 
3308 	 C 	 21.197437 	 34.009464 	 24.806162 	 C 	 1  ala 	 1.000000 
3309 	 C 	 21.509065 	 34.313295 	 25.706482 	 C 	 1  ala 	 1.000000 
3310 	 C 	 21.182999 	 34.621638 	 26.600129 	 C 	 1  ala 	 1.000000 
3311 	 C 	 21.525925 	 34.859392 	 27.508905 	 C 	 1  ala 	 1.000000 
3312 	 C 	 20.645404 	 35.122394 	 27.114553 	 C 	 1  ala 	 1.000000 
3313 	 C 	 21.377137 	 35.610105 	 26.638417 	 C 	 1  ala 	 1.000000 
3314 	 C 	 21.413530 	 36.525704 	 27.038858 	 C 	 1  ala 	 1.000000 
3315 	 C 	 21.042465 	 36.516876 	 27.967423 	 C 	 1  ala 	 1.000000 
3316 	 C 	 20.740111 	 36.214549 	 28.871403 	 C 	 1  ala 	 1.000000 
3317 	 C 	 20.433424 	 36.296316 	 29.819695 	 C 	 1  ala 	 1.000000 
3318 	 C 	 19.798683 	 36.580174 	 29.100996 	 C 	 1  ala 	 1.000000 
3319 	 C 	 19.483522 	 36.567231 	 30.049946 	 C 	 1  ala 	 1.000000 
3320 	 C 	 20.266129 	 36.305628 	 29.485065 	 C 	 1  ala 	 1.000000 
3321 	 C 	 20.937932 	 36.317519 	 30.225699 	 C 	 1  ala 	 1.000000 
3322 	 C 	 20.124869 	 36.629919 	 30.716956 	 C 	 1  ala 	 1.000000 
3323 	 C 	 20.547457 	 37.402292 	 30.242763 	 C 	 1  ala 	 1.000000 
3324 	 C 	 21.331424 	 38.021523 	 30.286909 	 C 	 1  ala 	 1.000000 
3325 	 C 	 20.535345 	 38.189716 	 29.705558 	 C 	 1  ala 	 1.000000 
3326 	 C 	 20.429886 	 38.307153 	 28.718093 	 C 	 1  ala 	 1.000000 
3327 	 C 	 20.256387 	 39.282473 	 28.854654 	 C 	 1  ala 	 1.000000 
3328 	 C 	 21.008871 	 38.657139 	 28.647955 	 C 	 1  ala 	 1.000000 
3329 	 C 	 20.990949 	 37.675806 	 28.456473 	 C 	 1  ala 	 1.000000 
3330 	 C 	 20.972635 	 37.204809 	 29.338418 	 C 	 1  ala 	 1.000000 
3331 	 C 	 20.171126 	 37.162835 	 29.934925 	 C 	 1  ala 	 1.000000 
3332 	 C 	 20.593679 	 37.049606 	 30.834163 	 C 	 1  ala 	 1.000000 
3333 	 C 	 20.927871 	 37.984911 	 30.950445 	 C 	 1  ala 	 1.000000 
3334 	 C 	 20.801318 	 38.956303 	 31.151395 	 C 	 1  ala 	 1.000000 
3335 	 C 	 20.985485 	 38.790813 	 30.182532 	 C 	 1  ala 	 1.000000 
3336 	 C 	 20.652154 	 39.038949 	 29.272961 	 C 	 1  ala 	 1.000000 
3337 	 C 	 21.360603 	 39.638215 	 29.645760 	 C 	 1  ala 	 1.000000 
3338 	 C 	 20.940427 	 39.097021 	 30.374156 	 C 	 1  ala 	 1.000000 
3339 	 C 	 20.208019 	 39.572007 	 29.886339 	 C 	 1  ala 	 1.000000 
3340 	 C 	 19.800903 	 38.923207 	 29.243443 	 C 	 1  ala 	 1.000000 
3341 	 C 	 19.439686 	 38.253162 	 28.594936 	 C 	 1  ala 	 1.000000 
3342 	 C 	 18.851809 	 37.880045 	 29.312699 	 C 	 1  ala 	 1.000000 
3343 	 C 	 18.721510 	 36.918956 	 29.556277 	 C 	 1  ala 	 1.000000 
3344 	 C 	 17.999179 	 36.885454 	 28.865542 	 C 	 1  ala 	 1.000000 
3345 	 C 	 17.054360 	 37.204235 	 28.790073 	 C 	 1  ala 	 1.000000 
3346 	 C 	 17.875360 	 36.664594 	 28.976479 	 C 	 1  ala 	 1.000000 
3347 	 C 	 18.357541 	 37.363294 	 28.447971 	 C 	 1  ala 	 1.000000 
3348 	 C 	 18.338838 	 36.378643 	 28.274443 	 C 	 1  ala 	 1.000000 
3349 	 C 	 18.664071 	 36.884020 	 27.475183 	 C 	 1  ala 	 1.000000 
3350 	 C 	 18.901404 	 36.872396 	 28.446542 	 C 	 1  ala 	 1.000000 
3351 	 C 	 18.547974 	 36.387392 	 27.646630 	 C 	 1  ala 	 1.000000 
3352 	 C 	 18.120603 	 35.517286 	 27.892130 	 C 	 1  ala 	 1.000000 
3353 	 C 	 18.384591 	 36.191615 	 27.202499 	 C 	 1  ala 	 1.000000 
3354 	 C 	 19.247173 	 36.589813 	 27.514571 	 C 	 1  ala 	 1.000000 
3355 	 C 	 19.017774 	 36.959177 	 26.614046 	 C 	 1  ala 	 1.000000 
3356 	 C 	 19.919346 	 36.614648 	 26.875709 	 C 	 1  ala 	 1.000000 
3357 	 C 	 19.091544 	 37.123764 	 27.111388 	 C 	 1  ala 	 1.000000 
3358 	 C 	 19.148375 	 36.125402 	 27.117862 	 C 	 1  ala 	 1.000000 
3359 	 C 	 19.178177 	 35.224621 	 27.551112 	 C 	 1  ala 	 1.000000 
3360 	 C 	 20.129322 	 34.951176 	 27.694470 	 C 	 1  ala 	 1.000000 
3361 	 C 	 20.537181 	 35.197718 	 26.815341 	 C 	 1  ala 	 1.000000 
3362 	 C 	 20.691453 	 34.792807 	 27.716589 	 C 	 1  ala 	 1.000000 
3363 	 C 	 19.735965 	 34.626782 	 27.472706 	 C 	 1  ala 	 1.000000 
3364 	 C 	 20.451857 	 35.108723 	 26.967501 	 C 	 1  ala 	 1.000000 
3365 	 C 	 20.151354 	 35.770020 	 26.280199 	 C 	 1  ala 	 1.000000 
3366 	 C 	 20.531570 	 36.442553 	 26.915127 	 C 	 1  ala 	 1.000000 
3367 	 C 	 20.281228 	 36.693377 	 27.850229 	 C 	 1  ala 	 1.000000 
3368 	 C 	 20.431199 	 37.253846 	 28.664713 	 C 	 1  ala 	 1.000000 
3369 	 C 	 21.246974 	 37.118504 	 28.102400 	 C 	 1  ala 	 1.000000 
3370 	 C 	 21.489617 	 36.870844 	 29.040371 	 C 	 1  ala 	 1.000000 
3371 	 C 	 21.504667 	 37.352224 	 28.163988 	 C 	 1  ala 	 1.000000 
3372 	 C 	 21.177158 	 36.670972 	 28.818689 	 C 	 1  ala 	 1.000000 
3373 	 C 	 22.074172 	 36.234373 	 28.887593 	 C 	 1  ala 	 1.000000 
3374 	 C 	 22.187053 	 35.246172 	 28.784069 	 C 	 1  ala 	 1.000000 
3375 	 C 	 22.299926 	 35.507547 	 29.742684 	 C 	 1  ala 	 1.000000 
3376 	 C 	 22.389804 	 36.369206 	 29.243219 	 C 	 1  ala 	 1.000000 
3377 	 C 	 22.335834 	 36.888573 	 30.096065 	 C 	 1  ala 	 1.000000 
3378 	 C 	 21.608995 	 37.561999 	 29.961145 	 C 	 1  ala 	 1.000000 
3379 	 C 	 20.647618 	 37.766199 	 30.145688 	 C 	 1  ala 	 1.000000 
3380 	 C 	 21.000894 	 38.573851 	 29.673571 	 C 	 1  ala 	 1.000000 
3381 	 C 	 21.882039 	 38.671725 	 29.210964 	 C 	 1  ala 	 1.000000 
3382 	 C 	 21.887798 	 38.369679 	 30.164241 	 C 	 1  ala 	 1.000000 
3383 	 C 	 22.404262 	 38.571780 	 30.996359 	 C 	 1  ala 	 1.000000 
3384 	 C 	 22.576938 	 37.660978 	 30.621361 	 C 	 1  ala 	 1.000000 
3385 	 C 	 23.523078 	 37.456625 	 30.370244 	 C 	 1  ala 	 1.000000 
3386 	 C 	 24.181872 	 38.199487 	 30.489177 	 C 	 1  ala 	 1.000000 
3387 	 C 	 24.028907 	 37.211272 	 30.483421 	 C 	 1  ala 	 1.000000 
3388 	 C 	 23.687362 	 37.529380 	 31.367816 	 C 	 1  ala 	 1.000000 
3389 	 C 	 23.466213 	 37.349714 	 32.326363 	 C 	 1  ala 	 1.000000 
3390 	 C 	 22.645843 	 36.829920 	 32.088020 	 C 	 1  ala 	 1.000000 
3391 	 C 	 23.162393 	 36.017707 	 31.816937 	 C 	 1  ala 	 1.000000 
3392 	 C 	 22.254916 	 36.424430 	 31.922109 	 C 	 1  ala 	 1.000000 
3393 	 C 	 22.904595 	 36.260896 	 31.179699 	 C 	 1  ala 	 1.000000 
3394 	 C 	 22.082218 	 35.697375 	 31.258058 	 C 	 1  ala 	 1.000000 
3395 	 C 	 22.316075 	 34.744640 	 31.064134 	 C 	 1  ala 	 1.000000 
3396 	 C 	 22.129874 	 35.708540 	 31.254463 	 C 	 1  ala 	 1.000000 
3397 	 C 	 22.440675 	 35.142122 	 32.017727 	 C 	 1  ala 	 1.000000 
3398 	 C 	 21.638875 	 34.808345 	 32.513418 	 C 	 1  ala 	 1.000000 
3399 	 C 	 21.743937 	 35.574623 	 31.879557 	 C 	 1  ala 	 1.000000 
3400 	 C 	 21.646641 	 34.582441 	 31.801409 	 C 	 1  ala 	 1.000000 
3401 	 C 	 21.772246 	 33.595017 	 31.897413 	 C 	 1  ala 	 1.000000 
3402 	 C 	 21.695821 	 34.444361 	 31.375137 	 C 	 1  ala 	 1.000000 
3403 	 C 	 22.082685 	 34.018496 	 30.557228 	 C 	 1  ala 	 1.000000 
3404 	 C 	 22.108589 	 35.017247 	 30.514516 	 C 	 1  ala 	 1.000000 
3405 	 C 	 21.346147 	 35.506493 	 30.091052 	 C 	 1  ala 	 1.000000 
3406 	 C 	 21.621564 	 35.494813 	 31.052306 	 C 	 1  ala 	 1.000000 
3407 	 C 	 21.149303 	 36.094526 	 30.406307 	 C 	 1  ala 	 1.000000 
3408 	 C 	 21.321212 	 35.657612 	 31.289231 	 C 	 1  ala 	 1.000000 
3409 	 C 	 20.381026 	 35.856247 	 31.565986 	 C 	 1  ala 	 1.000000 
3410 	 C 	 20.124563 	 35.763763 	 32.528105 	 C 	 1  ala 	 1.000000 
3411 	 C 	 20.862086 	 35.307196 	 33.025706 	 C 	 1  ala 	 1.000000 
3412 	 C 	 21.266086 	 34.644344 	 32.395300 	 C 	 1  ala 	 1.000000 
3413 	 C 	 20.579503 	 34.082928 	 32.857270 	 C 	 1  ala 	 1.000000 
3414 	 C 	 20.855654 	 33.614746 	 32.017897 	 C 	 1  ala 	 1.000000 
3415 	 C 	 21.724756 	 33.577982 	 32.511162 	 C 	 1  ala 	 1.000000 
3416 	 C 	 22.593549 	 34.067879 	 32.439054 	 C 	 1  ala 	 1.000000 
3417 	 C 	 21.752879 	 33.814628 	 32.917739 	 C 	 1  ala 	 1.000000 
3418 	 C 	 22.305255 	 33.157190 	 32.405238 	 C 	 1  ala 	 1.000000 
3419 	 C 	 21.889076 	 32.697229 	 31.620872 	 C 	 1  ala 	 1.000000 
3420 	 C 	 21.918017 	 33.540560 	 32.157487 	 C 	 1  ala 	 1.000000 
3421 	 C 	 22.318334 	 34.153023 	 32.839129 	 C 	 1  ala 	 1.000000 
3422 	 C 	 21.643452 	 33.877203 	 32.154689 	 C 	 1  ala 	 1.000000 
3423 	 C 	 20.651586 	 33.998847 	 32.192180 	 C 	 1  ala 	 1.000000 
3424 	 C 	 21.057623 	 33.681462 	 33.049152 	 C 	 1  ala 	 1.000000 
3425 	 C 	 20.591767 	 34.471191 	 33.448285 	 C 	 1  ala 	 1.000000 
3426 	 C 	 20.485531 	 33.655032 	 34.016262 	 C 	 1  ala 	 1.000000 
3427 	 C 	 20.093190 	 32.766255 	 33.779315 	 C 	 1  ala 	 1.000000 
3428 	 C 	 19.302163 	 32.236872 	 34.085958 	 C 	 1  ala 	 1.000000 
3429 	 C 	 18.985840 	 32.513415 	 34.993407 	 C 	 1  ala 	 1.000000 
3430 	 C 	 18.900820 	 31.982702 	 35.836684 	 C 	 1  ala 	 1.000000 
3431 	 C 	 18.377156 	 32.801606 	 36.071572 	 C 	 1  ala 	 1.000000 
3432 	 C 	 17.913742 	 32.384807 	 36.853573 	 C 	 1  ala 	 1.000000 
3433 	 C 	 17.861898 	 31.434767 	 37.161366 	 C 	 1  ala 	 1.000000 
3434 	 C 	 17.082155 	 31.910935 	 37.567894 	 C 	 1  ala 	 1.000000 
3435 	 C 	 16.586665 	 31.203981 	 37.063210 	 C 	 1  ala 	 1.000000 
3436 	 C 	 17.265197 	 31.043760 	 36.346326 	 C 	 1  ala 	 1.000000 
3437 	 C 	 17.632820 	 31.745902 	 36.956121 	 C 	 1  ala 	 1.000000 
3438 	 C 	 17.958054 	 31.866247 	 36.018177 	 C 	 1  ala 	 1.000000 
3439 	 C 	 18.740179 	 31.244657 	 35.974502 	 C 	 1  ala 	 1.000000 
3440 	 C 	 17.788395 	 31.428121 	 35.728639 	 C 	 1  ala 	 1.000000 
3441 	 C 	 18.298323 	 30.703009 	 35.265835 	 C 	 1  ala 	 1.000000 
3442 	 C 	 19.043531 	 30.467039 	 35.889521 	 C 	 1  ala 	 1.000000 
3443 	 C 	 19.604342 	 29.726156 	 35.519952 	 C 	 1  ala 	 1.000000 
3444 	 C 	 19.693733 	 29.341198 	 34.601357 	 C 	 1  ala 	 1.000000 
3445 	 C 	 19.295240 	 29.566547 	 35.490413 	 C 	 1  ala 	 1.000000 
3446 	 C 	 18.578909 	 29.934679 	 36.083160 	 C 	 1  ala 	 1.000000 
3447 	 C 	 18.030809 	 30.101064 	 35.263463 	 C 	 1  ala 	 1.000000 
3448 	 C 	 18.224708 	 29.466873 	 34.514994 	 C 	 1  ala 	 1.000000 
3449 	 C 	 18.505249 	 30.371494 	 34.194123 	 C 	 1  ala 	 1.000000 
3450 	 O 	 17.685657 	 30.206661 	 33.645399 	 O 	 1  ala 	 1.000000 
3451 	 C 	 18.472058 	 29.904917 	 33.106396 	 C 	 1  ala 	 1.000000 
3452 	 C 	 18.855097 	 30.086046 	 34.012195 	 C 	 1  ala 	 1.000000 
3453 	 C 	 18.836079 	 29.687464 	 33.095260 	 C 	 1  ala 	 1.000000 
3454 	 C 	 19.299796 	 30.542190 	 33.328521 	 C 	 1  ala 	 1.000000 
3455 	 C 	 19.183164 	 31.163526 	 32.553706 	 C 	 1  ala 	 1.000000 
3456 	 C 	 18.192926 	 31.215972 	 32.424567 	 C 	 1  ala 	 1.000000 
3457 	 C 	 17.597284 	 31.802609 	 32.973264 	 C 	 1  ala 	 1.000000 
3458 	 C 	 18.367815 	 32.430009 	 32.860783 	 C 	 1  ala 	 1.000000 
3459 	 C 	 18.235856 	 33.236318 	 32.284196 	 C 	 1  ala 	 1.000000 
3460 	 C 	 18.308657 	 33.198439 	 31.287569 	 C 	 1  ala 	 1.000000 
3461 	 C 	 18.952099 	 33.921358 	 31.539301 	 C 	 1  ala 	 1.000000 
3462 	 C 	 18.947835 	 34.645809 	 32.228615 	 C 	 1  ala 	 1.000000 
3463 	 C 	 18.717574 	 35.469243 	 32.747205 	 C 	 1  ala 	 1.000000 
3464 	 C 	 19.447519 	 35.949075 	 32.260438 	 C 	 1  ala 	 1.000000 
3465 	 C 	 20.162144 	 35.296825 	 32.513186 	 C 	 1  ala 	 1.000000 
3466 	 C 	 20.755438 	 35.941202 	 32.995660 	 C 	 1  ala 	 1.000000 
3467 	 C 	 20.774391 	 35.209474 	 32.314326 	 C 	 1  ala 	 1.000000 
3468 	 C 	 20.617035 	 36.002012 	 31.725156 	 C 	 1  ala 	 1.000000 
3469 	 C 	 20.291102 	 36.694739 	 31.081808 	 C 	 1  ala 	 1.000000 
3470 	 C 	 21.239760 	 36.384505 	 31.020144 	 C 	 1  ala 	 1.000000 
3471 	 C 	 21.951760 	 35.750292 	 31.321527 	 C 	 1  ala 	 1.000000 
3472 	 C 	 22.898027 	 36.073540 	 31.331000 	 C 	 1  ala 	 1.000000 
3473 	 C 	 21.969048 	 36.376864 	 31.543113 	 C 	 1  ala 	 1.000000 
3474 	 C 	 22.763123 	 36.918914 	 31.818116 	 C 	 1  ala 	 1.000000 
3475 	 C 	 23.458332 	 37.273562 	 31.192889 	 C 	 1  ala 	 1.000000 
3476 	 C 	 24.371060 	 37.524793 	 31.515087 	 C 	 1  ala 	 1.000000 
3477 	 C 	 24.443635 	 38.021170 	 32.380155 	 C 	 1  ala 	 1.000000 
3478 	 C 	 23.720835 	 37.525433 	 32.861615 	 C 	 1  ala 	 1.000000 
3479 	 C 	 23.206613 	 37.285566 	 33.685047 	 C 	 1  ala 	 1.000000 
3480 	 C 	 24.092905 	 36.955055 	 34.009467 	 C 	 1  ala 	 1.000000 
3481 	 C 	 24.949594 	 36.885976 	 33.498280 	 C 	 1  ala 	 1.000000 
3482 	 C 	 25.910838 	 36.904723 	 33.773344 	 C 	 1  ala 	 1.000000 
3483 	 C 	 25.505781 	 37.805223 	 33.931549 	 C 	 1  ala 	 1.000000 
3484 	 C 	 24.673991 	 38.206575 	 33.548088 	 C 	 1  ala 	 1.000000 
3485 	 C 	 23.686331 	 38.349455 	 33.483955 	 C 	 1  ala 	 1.000000 
3486 	 C 	 24.359927 	 38.220368 	 32.756215 	 C 	 1  ala 	 1.000000 
3487 	 C 	 24.388777 	 38.918978 	 32.041294 	 C 	 1  ala 	 1.000000 
3488 	 C 	 23.657047 	 38.486143 	 31.514771 	 C 	 1  ala 	 1.000000 
3489 	 C 	 23.362122 	 39.441575 	 31.527769 	 C 	 1  ala 	 1.000000 
3490 	 C 	 22.903199 	 38.781896 	 32.122928 	 C 	 1  ala 	 1.000000 
3491 	 C 	 23.511422 	 38.492750 	 31.383699 	 C 	 1  ala 	 1.000000 
3492 	 C 	 24.184662 	 38.358869 	 30.656496 	 C 	 1  ala 	 1.000000 
3493 	 C 	 24.684595 	 37.975478 	 31.433077 	 C 	 1  ala 	 1.000000 
3494 	 C 	 24.757923 	 38.927051 	 31.731626 	 C 	 1  ala 	 1.000000 
3495 	 C 	 23.999431 	 39.099914 	 32.359964 	 C 	 1  ala 	 1.000000 
3496 	 C 	 24.978206 	 39.304704 	 32.367693 	 C 	 1  ala 	 1.000000 
3497 	 C 	 25.174075 	 39.871832 	 31.567692 	 C 	 1  ala 	 1.000000 
3498 	 C 	 24.691060 	 39.016909 	 31.378474 	 C 	 1  ala 	 1.000000 
3499 	 C 	 24.200701 	 38.951260 	 32.247518 	 C 	 1  ala 	 1.000000 
3500 	 C 	 24.561507 	 38.689937 	 31.352237 	 C 	 1  ala 	 1.000000 
3501 	 C 	 25.237966 	 38.200773 	 30.801672 	 C 	 1  ala 	 1.000000 
3502 	 C 	 25.631075 	 39.087501 	 30.558407 	 C 	 1  ala 	 1.000000 
3503 	 C 	 25.165706 	 39.951184 	 30.752015 	 C 	 1  ala 	 1.000000 
3504 	 C 	 24.183210 	 39.924841 	 30.936425 	 C 	 1  ala 	 1.000000 
3505 	 C 	 23.789442 	 39.043550 	 30.675134 	 C 	 1  ala 	 1.000000 
3506 	 C 	 23.777426 	 38.227680 	 31.253244 	 C 	 1  ala 	 1.000000 
3507 	 C 	 24.537590 	 38.079418 	 30.620655 	 C 	 1  ala 	 1.000000 
3508 	 C 	 25.408920 	 38.347346 	 30.209563 	 C 	 1  ala 	 1.000000 
3509 	 C 	 24.938085 	 38.326591 	 29.327585 	 C 	 1  ala 	 1.000000 
3510 	 C 	 23.991436 	 38.266867 	 29.644267 	 C 	 1  ala 	 1.000000 
3511 	 C 	 23.631010 	 39.036247 	 29.116870 	 C 	 1  ala 	 1.000000 
3512 	 C 	 23.020788 	 38.585040 	 29.768055 	 C 	 1  ala 	 1.000000 
3513 	 C 	 22.984494 	 37.949737 	 30.539464 	 C 	 1  ala 	 1.000000 
3514 	 C 	 23.320667 	 38.723595 	 31.076242 	 C 	 1  ala 	 1.000000 
3515 	 C 	 22.368011 	 38.966704 	 31.258846 	 C 	 1  ala 	 1.000000 
3516 	 C 	 22.862983 	 39.626503 	 31.824238 	 C 	 1  ala 	 1.000000 
3517 	 C 	 22.053876 	 40.159009 	 32.072802 	 C 	 1  ala 	 1.000000 
3518 	 C 	 22.487046 	 41.031824 	 31.847954 	 C 	 1  ala 	 1.000000 
3519 	 C 	 21.513291 	 41.189313 	 31.683640 	 C 	 1  ala 	 1.000000 
3520 	 C 	 20.753492 	 41.815153 	 31.507489 	 C 	 1  ala 	 1.000000 
3521 	 C 	 21.454100 	 41.289988 	 31.024425 	 C 	 1  ala 	 1.000000 
3522 	 C 	 20.579393 	 40.974638 	 31.392449 	 C 	 1  ala 	 1.000000 
3523 	 C 	 20.108150 	 41.769772 	 31.010751 	 C 	 1  ala 	 1.000000 
3524 	 C 	 19.997322 	 42.647058 	 30.543754 	 C 	 1  ala 	 1.000000 
3525 	 C 	 19.613057 	 43.094996 	 31.351027 	 C 	 1  ala 	 1.000000 
3526 	 C 	 20.526939 	 43.498582 	 31.395055 	 C 	 1  ala 	 1.000000 
3527 	 C 	 20.464319 	 43.054169 	 30.501424 	 C 	 1  ala 	 1.000000 
3528 	 C 	 20.832350 	 42.333822 	 29.913501 	 C 	 1  ala 	 1.000000 
3529 	 C 	 19.978302 	 42.128195 	 29.435674 	 C 	 1  ala 	 1.000000 
3530 	 C 	 19.994108 	 41.333295 	 28.829140 	 C 	 1  ala 	 1.000000 
3531 	 C 	 19.573658 	 42.229278 	 28.686191 	 C 	 1  ala 	 1.000000 
3532 	 C 	 19.076224 	 43.030630 	 29.018449 	 C 	 1  ala 	 1.000000 
3533 	 C 	 18.724155 	 43.965002 	 28.963703 	 C 	 1  ala 	 1.000000 
3534 	 C 	 19.442680 	 44.568732 	 28.618404 	 C 	 1  ala 	 1.000000 
3535 	 C 	 19.964021 	 44.938124 	 27.849149 	 C 	 1  ala 	 1.000000 
3536 	 C 	 19.756862 	 45.348887 	 28.737045 	 C 	 1  ala 	 1.000000 
3537 	 C 	 19.167377 	 44.939042 	 28.040960 	 C 	 1  ala 	 1.000000 
3538 	 C 	 18.785199 	 44.731256 	 27.140535 	 C 	 1  ala 	 1.000000 
3539 	 C 	 18.943593 	 43.762282 	 26.950799 	 C 	 1  ala 	 1.000000 
3540 	 C 	 18.818218 	 43.184160 	 26.144538 	 C 	 1  ala 	 1.000000 
3541 	 C 	 19.141587 	 43.822421 	 25.445928 	 C 	 1  ala 	 1.000000 
3542 	 C 	 18.285564 	 43.368893 	 25.197859 	 C 	 1  ala 	 1.000000 
3543 	 C 	 17.795384 	 44.135491 	 25.612651 	 C 	 1  ala 	 1.000000 
3544 	 C 	 17.903198 	 43.151431 	 25.754077 	 C 	 1  ala 	 1.000000 
3545 	 C 	 17.820878 	 44.081028 	 26.113342 	 C 	 1  ala 	 1.000000 
3546 	 C 	 17.190912 	 44.613161 	 26.679008 	 C 	 1  ala 	 1.000000 
3547 	 C 	 17.370862 	 45.368702 	 26.049106 	 C 	 1  ala 	 1.000000 
3548 	 C 	 16.996319 	 45.622639 	 25.157347 	 C 	 1  ala 	 1.000000 
3549 	 C 	 16.069258 	 45.270540 	 25.028565 	 C 	 1  ala 	 1.000000 
3550 	 N 	 15.789203 	 45.960428 	 24.361014 	 N 	 1  ala 	 1.000000 
3551 	 C 	 15.318303 	 45.630202 	 25.179063 	 C 	 1  ala 	 1.000000 
3552 	 C 	 15.925938 	 45.211718 	 24.504045 	 C 	 1  ala 	 1.000000 
3553 	 C 	 15.243669 	 45.831745 	 24.891440 	 C 	 1  ala 	 1.000000 
3554 	 C 	 14.718446 	 44.992828 	 25.034125 	 C 	 1  ala 	 1.000000 
3555 	 C 	 13.822472 	 44.646709 	 24.755859 	 C 	 1  ala 	 1.000000 
3556 	 C 	 14.800248 	 44.692289 	 24.551220 	 C 	 1  ala 	 1.000000 
3557 	 C 	 15.016833 	 45.030364 	 25.467078 	 C 	 1  ala 	 1.000000 
3558 	 C 	 14.792520 	 45.983798 	 25.668691 	 C 	 1  ala 	 1.000000 
3559 	 C 	 14.909352 	 45.908613 	 26.658992 	 C 	 1  ala 	 1.000000 
3560 	 C 	 14.632803 	 45.308935 	 25.908055 	 C 	 1  ala 	 1.000000 
3561 	 C 	 14.027954 	 44.597266 	 25.550726 	 C 	 1  ala 	 1.000000 
3562 	 C 	 13.822315 	 45.264993 	 24.835287 	 C 	 1  ala 	 1.000000 
3563 	 C 	 14.633657 	 44.808135 	 24.470589 	 C 	 1  ala 	 1.000000 
3564 	 C 	 14.183244 	 43.930948 	 24.636934 	 C 	 1  ala 	 1.000000 
3565 	 C 	 14.353790 	 44.721337 	 25.225321 	 C 	 1  ala 	 1.000000 
3566 	 C 	 15.214762 	 44.913293 	 24.754280 	 C 	 1  ala 	 1.000000 
3567 	 C 	 15.759929 	 44.111204 	 24.510464 	 C 	 1  ala 	 1.000000 
3568 	 C 	 16.268308 	 44.557957 	 25.246645 	 C 	 1  ala 	 1.000000 
3569 	 C 	 16.221249 	 44.081991 	 24.368441 	 C 	 1  ala 	 1.000000 
3570 	 C 	 17.155187 	 43.797921 	 24.585383 	 C 	 1  ala 	 1.000000 
3571 	 C 	 17.176936 	 42.803035 	 24.684021 	 C 	 1  ala 	 1.000000 
3572 	 C 	 16.312979 	 43.044734 	 25.125789 	 C 	 1  ala 	 1.000000 
3573 	 C 	 16.795214 	 43.232316 	 24.270065 	 C 	 1  ala 	 1.000000 
3574 	 C 	 15.834632 	 43.060054 	 24.488260 	 C 	 1  ala 	 1.000000 
3575 	 C 	 15.059720 	 43.689612 	 24.544549 	 C 	 1  ala 	 1.000000 
3576 	 C 	 14.738422 	 44.402348 	 25.168067 	 C 	 1  ala 	 1.000000 
3577 	 C 	 15.525583 	 43.788365 	 25.226404 	 C 	 1  ala 	 1.000000 
3578 	 C 	 14.744437 	 44.345856 	 24.945307 	 C 	 1  ala 	 1.000000 
3579 	 C 	 15.739079 	 44.292801 	 25.034039 	 C 	 1  ala 	 1.000000 
3580 	 C 	 15.040847 	 43.590684 	 25.173701 	 C 	 1  ala 	 1.000000 
3581 	 C 	 14.595105 	 42.828680 	 24.703952 	 C 	 1  ala 	 1.000000 
3582 	 C 	 14.656174 	 42.988022 	 25.689285 	 C 	 1  ala 	 1.000000 
3583 	 C 	 14.973214 	 43.205917 	 26.612328 	 C 	 1  ala 	 1.000000 
3584 	 C 	 15.737248 	 43.362548 	 27.238202 	 C 	 1  ala 	 1.000000 
3585 	 C 	 15.795931 	 44.225638 	 26.736573 	 C 	 1  ala 	 1.000000 
3586 	 C 	 15.248228 	 44.438080 	 27.545825 	 C 	 1  ala 	 1.000000 
3587 	 C 	 14.455075 	 43.915715 	 27.232705 	 C 	 1  ala 	 1.000000 
3588 	 C 	 14.718270 	 42.982687 	 26.987376 	 C 	 1  ala 	 1.000000 
3589 	 C 	 15.707611 	 43.109885 	 26.916495 	 C 	 1  ala 	 1.000000 
3590 	 C 	 16.275924 	 43.725312 	 27.462638 	 C 	 1  ala 	 1.000000 
3591 	 C 	 17.254674 	 43.521143 	 27.443595 	 C 	 1  ala 	 1.000000 
3592 	 C 	 16.390489 	 43.608996 	 27.939040 	 C 	 1  ala 	 1.000000 
3593 	 C 	 15.495595 	 43.163591 	 27.911146 	 C 	 1  ala 	 1.000000 
3594 	 C 	 16.211116 	 43.466626 	 27.281703 	 C 	 1  ala 	 1.000000 
3595 	 C 	 16.423745 	 42.821678 	 26.547652 	 C 	 1  ala 	 1.000000 
3596 	 C 	 17.394239 	 42.951516 	 26.750832 	 C 	 1  ala 	 1.000000 
3597 	 C 	 18.328379 	 42.647231 	 26.564300 	 C 	 1  ala 	 1.000000 
3598 	 C 	 18.960791 	 42.884605 	 27.301666 	 C 	 1  ala 	 1.000000 
3599 	 C 	 18.670863 	 43.488451 	 28.044169 	 C 	 1  ala 	 1.000000 
3600 	 C 	 19.502815 	 42.978920 	 28.263792 	 C 	 1  ala 	 1.000000 
3601 	 C 	 18.580015 	 42.820297 	 28.614903 	 C 	 1  ala 	 1.000000 
3602 	 C 	 17.713658 	 43.190769 	 28.949829 	 C 	 1  ala 	 1.000000 
3603 	 C 	 18.591120 	 43.603549 	 29.194107 	 C 	 1  ala 	 1.000000 
3604 	 C 	 18.467065 	 42.625446 	 29.361215 	 C 	 1  ala 	 1.000000 
3605 	 C 	 17.563198 	 42.926000 	 29.665668 	 C 	 1  ala 	 1.000000 
3606 	 C 	 17.098027 	 43.299811 	 30.468090 	 C 	 1  ala 	 1.000000 
3607 	 C 	 17.750051 	 43.610598 	 29.776516 	 C 	 1  ala 	 1.000000 
3608 	 C 	 18.677723 	 43.603301 	 29.403190 	 C 	 1  ala 	 1.000000 
3609 	 C 	 18.599219 	 42.677918 	 29.032376 	 C 	 1  ala 	 1.000000 
3610 	 C 	 17.929066 	 42.362584 	 29.704284 	 C 	 1  ala 	 1.000000 
3611 	 C 	 16.973328 	 42.310238 	 29.414760 	 C 	 1  ala 	 1.000000 
3612 	 C 	 16.855012 	 42.913466 	 30.203504 	 C 	 1  ala 	 1.000000 
3613 	 C 	 15.973816 	 42.446314 	 30.130968 	 C 	 1  ala 	 1.000000 
3614 	 C 	 16.718192 	 43.092030 	 29.960807 	 C 	 1  ala 	 1.000000 
3615 	 C 	 17.093759 	 43.053582 	 30.886805 	 C 	 1  ala 	 1.000000 
3616 	 C 	 16.705406 	 42.427315 	 31.562801 	 C 	 1  ala 	 1.000000 
3617 	 C 	 16.754974 	 41.621870 	 32.153396 	 C 	 1  ala 	 1.000000 
3618 	 C 	 16.241332 	 42.244500 	 31.563053 	 C 	 1  ala 	 1.000000 
3619 	 C 	 15.390385 	 42.768471 	 31.599709 	 C 	 1  ala 	 1.000000 
3620 	 C 	 15.083245 	 43.288723 	 32.396580 	 C 	 1  ala 	 1.000000 
3621 	 C 	 15.542293 	 44.154202 	 32.597134 	 C 	 1  ala 	 1.000000 
3622 	 C 	 15.041984 	 44.742808 	 31.962126 	 C 	 1  ala 	 1.000000 
3623 	 C 	 14.250858 	 45.087817 	 31.457063 	 C 	 1  ala 	 1.000000 
3624 	 C 	 13.735676 	 44.748941 	 30.669820 	 C 	 1  ala 	 1.000000 
3625 	 C 	 14.206001 	 45.631434 	 30.671423 	 C 	 1  ala 	 1.000000 
3626 	 C 	 13.814196 	 45.321368 	 29.805197 	 C 	 1  ala 	 1.000000 
3627 	 C 	 14.412873 	 44.535569 	 29.960457 	 C 	 1  ala 	 1.000000 
3628 	 C 	 14.654440 	 45.305817 	 29.370235 	 C 	 1  ala 	 1.000000 
3629 	 C 	 15.040379 	 46.205706 	 29.167131 	 C 	 1  ala 	 1.000000 
3630 	 C 	 15.049633 	 46.477383 	 30.129475 	 C 	 1  ala 	 1.000000 
3631 	 C 	 15.900906 	 46.364434 	 30.641898 	 C 	 1  ala 	 1.000000 
3632 	 C 	 15.980959 	 46.753927 	 31.559441 	 C 	 1  ala 	 1.000000 
3633 	 C 	 16.510958 	 47.264700 	 30.882528 	 C 	 1  ala 	 1.000000 
3634 	 C 	 16.365314 	 46.997231 	 29.930032 	 C 	 1  ala 	 1.000000 
3635 	 C 	 16.643903 	 46.951655 	 30.889361 	 C 	 1  ala 	 1.000000 
3636 	 C 	 16.528521 	 47.290314 	 31.823169 	 C 	 1  ala 	 1.000000 
3637 	 C 	 16.826007 	 48.194816 	 32.128749 	 C 	 1  ala 	 1.000000 
3638 	 C 	 16.229353 	 47.443475 	 31.846807 	 C 	 1  ala 	 1.000000 
3639 	 C 	 17.108012 	 47.920362 	 31.823653 	 C 	 1  ala 	 1.000000 
3640 	 C 	 16.796779 	 48.187088 	 30.911517 	 C 	 1  ala 	 1.000000 
3641 	 C 	 17.340344 	 48.936950 	 31.288669 	 C 	 1  ala 	 1.000000 
3642 	 C 	 17.886544 	 49.070095 	 30.461663 	 C 	 1  ala 	 1.000000 
3643 	 C 	 17.796386 	 49.790614 	 31.149213 	 C 	 1  ala 	 1.000000 
3644 	 C 	 17.413334 	 48.870745 	 31.233540 	 C 	 1  ala 	 1.000000 
3645 	 C 	 18.088248 	 48.632728 	 31.931994 	 C 	 1  ala 	 1.000000 
3646 	 C 	 18.018907 	 49.336791 	 32.638737 	 C 	 1  ala 	 1.000000 
3647 	 C 	 17.499476 	 48.805654 	 33.308129 	 C 	 1  ala 	 1.000000 
3648 	 C 	 16.672590 	 49.353613 	 33.181641 	 C 	 1  ala 	 1.000000 
3649 	 C 	 17.589390 	 49.707724 	 33.366257 	 C 	 1  ala 	 1.000000 
3650 	 C 	 17.966385 	 48.832710 	 33.669944 	 C 	 1  ala 	 1.000000 
3651 	 C 	 17.911286 	 48.293810 	 34.510510 	 C 	 1  ala 	 1.000000 
3652 	 C 	 17.995569 	 48.643252 	 33.577351 	 C 	 1  ala 	 1.000000 
3653 	 C 	 18.186796 	 48.317662 	 34.503322 	 C 	 1  ala 	 1.000000 
3654 	 C 	 17.461063 	 48.675589 	 35.090860 	 C 	 1  ala 	 1.000000 
3655 	 C 	 17.408074 	 47.834505 	 34.552557 	 C 	 1  ala 	 1.000000 
3656 	 C 	 16.789973 	 47.190775 	 35.003737 	 C 	 1  ala 	 1.000000 
3657 	 C 	 16.590050 	 46.661119 	 35.828052 	 C 	 1  ala 	 1.000000 
3658 	 C 	 16.689302 	 45.667753 	 35.769966 	 C 	 1  ala 	 1.000000 
3659 	 C 	 16.467885 	 46.329016 	 35.053234 	 C 	 1  ala 	 1.000000 
3660 	 C 	 17.148911 	 45.848201 	 34.500947 	 C 	 1  ala 	 1.000000 
3661 	 C 	 17.363646 	 45.146160 	 33.821958 	 C 	 1  ala 	 1.000000 
3662 	 C 	 17.454352 	 44.286625 	 33.318995 	 C 	 1  ala 	 1.000000 
3663 	 C 	 16.673678 	 43.715685 	 33.573110 	 C 	 1  ala 	 1.000000 
3664 	 C 	 15.976814 	 43.607669 	 34.282132 	 C 	 1  ala 	 1.000000 
3665 	 C 	 16.486290 	 42.758820 	 34.423164 	 C 	 1  ala 	 1.000000 
3666 	 C 	 15.718069 	 42.322520 	 33.954680 	 C 	 1  ala 	 1.000000 
3667 	 C 	 15.603032 	 43.063368 	 34.616429 	 C 	 1  ala 	 1.000000 
3668 	 C 	 16.587411 	 43.038892 	 34.442076 	 C 	 1  ala 	 1.000000 
3669 	 C 	 17.335935 	 42.710092 	 35.017925 	 C 	 1  ala 	 1.000000 
3670 	 C 	 17.319377 	 41.924756 	 34.399078 	 C 	 1  ala 	 1.000000 
3671 	 C 	 17.565236 	 42.570426 	 33.676123 	 C 	 1  ala 	 1.000000 
3672 	 C 	 16.571221 	 42.544791 	 33.782321 	 C 	 1  ala 	 1.000000 
3673 	 C 	 16.361647 	 42.937226 	 34.677907 	 C 	 1  ala 	 1.000000 
3674 	 C 	 17.079290 	 42.391214 	 35.110181 	 C 	 1  ala 	 1.000000 
3675 	 C 	 17.063156 	 43.114807 	 34.420143 	 C 	 1  ala 	 1.000000 
3676 	 C 	 17.256762 	 43.226515 	 35.394842 	 C 	 1  ala 	 1.000000 
3677 	 C 	 17.774612 	 44.003435 	 35.752929 	 C 	 1  ala 	 1.000000 
3678 	 C 	 17.101717 	 43.264050 	 35.775816 	 C 	 1  ala 	 1.000000 
3679 	 C 	 17.533584 	 42.531595 	 36.302125 	 C 	 1  ala 	 1.000000 
3680 	 C 	 17.727524 	 41.773243 	 35.679799 	 C 	 1  ala 	 1.000000 
3681 	 C 	 17.625102 	 41.367038 	 34.771776 	 C 	 1  ala 	 1.000000 
3682 	 C 	 17.009850 	 40.603914 	 34.574020 	 C 	 1  ala 	 1.000000 
3683 	 C 	 16.278865 	 40.839940 	 33.933745 	 C 	 1  ala 	 1.000000 
3684 	 C 	 15.879737 	 40.657882 	 34.832384 	 C 	 1  ala 	 1.000000 
3685 	 C 	 15.977616 	 41.080046 	 33.931164 	 C 	 1  ala 	 1.000000 
3686 	 C 	 15.391683 	 41.264036 	 33.141968 	 C 	 1  ala 	 1.000000 
3687 	 C 	 14.935061 	 42.067350 	 33.524308 	 C 	 1  ala 	 1.000000 
3688 	 C 	 15.219620 	 42.468114 	 34.395178 	 C 	 1  ala 	 1.000000 
3689 	 C 	 14.666916 	 42.815363 	 33.637592 	 C 	 1  ala 	 1.000000 
3690 	 C 	 15.087645 	 42.662235 	 32.743422 	 C 	 1  ala 	 1.000000 
3691 	 C 	 15.975849 	 43.107437 	 32.629896 	 C 	 1  ala 	 1.000000 
3692 	 C 	 16.661556 	 42.388895 	 32.513691 	 C 	 1  ala 	 1.000000 
3693 	 C 	 16.572874 	 43.381365 	 32.429201 	 C 	 1  ala 	 1.000000 
3694 	 C 	 16.960354 	 44.303186 	 32.418947 	 C 	 1  ala 	 1.000000 
3695 	 C 	 17.052154 	 44.705656 	 31.508128 	 C 	 1  ala 	 1.000000 
3696 	 C 	 16.163595 	 45.162755 	 31.469105 	 C 	 1  ala 	 1.000000 
3697 	 C 	 15.867566 	 44.399991 	 30.894162 	 C 	 1  ala 	 1.000000 
3698 	 C 	 16.124447 	 44.248283 	 31.848624 	 C 	 1  ala 	 1.000000 
3699 	 C 	 15.740313 	 43.334548 	 31.716222 	 C 	 1  ala 	 1.000000 
3700 	 C 	 14.832323 	 43.566767 	 32.064975 	 C 	 1  ala 	 1.000000 
3701 	 C 	 14.161579 	 44.115473 	 31.565951 	 C 	 1  ala 	 1.000000 
3702 	 C 	 14.245972 	 44.460362 	 32.500792 	 C 	 1  ala 	 1.000000 
3703 	 C 	 14.829238 	 45.207045 	 32.820582 	 C 	 1  ala 	 1.000000 
3704 	 C 	 14.538667 	 45.757810 	 33.603031 	 C 	 1  ala 	 1.000000 
3705 	 C 	 13.967208 	 46.275001 	 34.240172 	 C 	 1  ala 	 1.000000 
3706 	 C 	 13.089215 	 46.614452 	 33.902679 	 C 	 1  ala 	 1.000000 
3707 	 C 	 12.893194 	 47.554745 	 34.180932 	 C 	 1  ala 	 1.000000 
3708 	 C 	 12.749551 	 46.963666 	 33.387212 	 C 	 1  ala 	 1.000000 
3709 	 C 	 12.786881 	 47.936334 	 33.616394 	 C 	 1  ala 	 1.000000 
3710 	 C 	 13.521049 	 48.534000 	 33.938561 	 C 	 1  ala 	 1.000000 
3711 	 C 	 14.204844 	 48.895988 	 34.572114 	 C 	 1  ala 	 1.000000 
3712 	 C 	 14.930425 	 49.537069 	 34.322017 	 C 	 1  ala 	 1.000000 
3713 	 C 	 15.842323 	 49.804384 	 34.010594 	 C 	 1  ala 	 1.000000 
3714 	 C 	 15.500516 	 49.579034 	 34.922946 	 C 	 1  ala 	 1.000000 
3715 	 C 	 16.162567 	 49.050742 	 34.391348 	 C 	 1  ala 	 1.000000 
3716 	 C 	 15.373572 	 48.814801 	 33.824059 	 C 	 1  ala 	 1.000000 
3717 	 C 	 15.899511 	 49.605911 	 33.511757 	 C 	 1  ala 	 1.000000 
3718 	 C 	 16.015466 	 48.664165 	 33.827461 	 C 	 1  ala 	 1.000000 
3719 	 C 	 16.886534 	 48.175482 	 33.876760 	 C 	 1  ala 	 1.000000 
3720 	 C 	 16.924384 	 47.544447 	 34.651590 	 C 	 1  ala 	 1.000000 
3721 	 C 	 17.769833 	 47.034740 	 34.492169 	 C 	 1  ala 	 1.000000 
3722 	 C 	 18.511861 	 47.304852 	 33.878627 	 C 	 1  ala 	 1.000000 
3723 	 C 	 18.968021 	 47.913119 	 33.229067 	 C 	 1  ala 	 1.000000 
3724 	 C 	 18.130735 	 48.048730 	 32.699387 	 C 	 1  ala 	 1.000000 
3725 	 C 	 18.502485 	 47.374604 	 33.337631 	 C 	 1  ala 	 1.000000 
3726 	 C 	 18.729588 	 47.610179 	 34.282580 	 C 	 1  ala 	 1.000000 
3727 	 C 	 18.456395 	 46.918258 	 34.950869 	 C 	 1  ala 	 1.000000 
3728 	 C 	 18.440629 	 45.957991 	 34.672233 	 C 	 1  ala 	 1.000000 
3729 	 C 	 18.841729 	 46.700559 	 35.208620 	 C 	 1  ala 	 1.000000 
3730 	 C 	 18.185909 	 46.178704 	 35.754117 	 C 	 1  ala 	 1.000000 
3731 	 C 	 18.765148 	 46.210153 	 34.939567 	 C 	 1  ala 	 1.000000 
3732 	 C 	 19.141632 	 46.908644 	 35.548147 	 C 	 1  ala 	 1.000000 
3733 	 C 	 18.539409 	 46.391635 	 36.156447 	 C 	 1  ala 	 1.000000 
3734 	 C 	 18.310064 	 46.929338 	 36.967790 	 C 	 1  ala 	 1.000000 
3735 	 C 	 18.412428 	 46.108522 	 37.529736 	 C 	 1  ala 	 1.000000 
3736 	 C 	 18.762899 	 45.472106 	 36.842608 	 C 	 1  ala 	 1.000000 
3737 	 C 	 19.052962 	 45.149092 	 37.743455 	 C 	 1  ala 	 1.000000 
3738 	 C 	 19.633247 	 45.236700 	 36.933768 	 C 	 1  ala 	 1.000000 
3739 	 C 	 20.401457 	 45.844539 	 36.732810 	 C 	 1  ala 	 1.000000 
3740 	 C 	 19.470850 	 45.570173 	 36.490542 	 C 	 1  ala 	 1.000000 
3741 	 C 	 19.916204 	 44.676375 	 36.543316 	 C 	 1  ala 	 1.000000 
3742 	 C 	 20.391527 	 44.247127 	 35.775323 	 C 	 1  ala 	 1.000000 
3743 	 C 	 20.411299 	 44.021977 	 36.749446 	 C 	 1  ala 	 1.000000 
3744 	 C 	 20.573529 	 43.100274 	 36.397103 	 C 	 1  ala 	 1.000000 
3745 	 C 	 19.822995 	 42.901285 	 37.027264 	 C 	 1  ala 	 1.000000 
3746 	 C 	 19.852908 	 41.966910 	 36.672231 	 C 	 1  ala 	 1.000000 
3747 	 C 	 19.400373 	 41.091874 	 36.500407 	 C 	 1  ala 	 1.000000 
3748 	 C 	 20.061193 	 41.826371 	 36.346033 	 C 	 1  ala 	 1.000000 
3749 	 C 	 19.867863 	 41.524894 	 37.279700 	 C 	 1  ala 	 1.000000 
3750 	 C 	 20.191763 	 41.662440 	 36.343661 	 C 	 1  ala 	 1.000000 
3751 	 C 	 20.561595 	 42.240274 	 35.616109 	 C 	 1  ala 	 1.000000 
3752 	 C 	 21.465533 	 42.257923 	 36.043409 	 C 	 1  ala 	 1.000000 
3753 	 C 	 21.737025 	 42.033239 	 36.979256 	 C 	 1  ala 	 1.000000 
3754 	 C 	 21.219653 	 42.884828 	 36.894857 	 C 	 1  ala 	 1.000000 
3755 	 C 	 20.513663 	 42.648240 	 36.227322 	 C 	 1  ala 	 1.000000 
3756 	 C 	 19.574097 	 42.956263 	 36.077864 	 C 	 1  ala 	 1.000000 
3757 	 C 	 19.117159 	 43.718370 	 36.536558 	 C 	 1  ala 	 1.000000 
3758 	 C 	 18.993802 	 43.115637 	 37.324908 	 C 	 1  ala 	 1.000000 
3759 	 C 	 18.332362 	 43.526200 	 36.697265 	 C 	 1  ala 	 1.000000 
3760 	 C 	 18.387653 	 42.659172 	 37.192448 	 C 	 1  ala 	 1.000000 
3761 	 C 	 18.523921 	 43.435033 	 37.808459 	 C 	 1  ala 	 1.000000 
3762 	 C 	 18.524235 	 42.676053 	 37.157346 	 C 	 1  ala 	 1.000000 
3763 	 C 	 17.527580 	 42.594355 	 37.159371 	 C 	 1  ala 	 1.000000 
3764 	 C 	 17.782071 	 41.884009 	 36.503136 	 C 	 1  ala 	 1.000000 
3765 	 C 	 17.071722 	 42.531038 	 36.780190 	 C 	 1  ala 	 1.000000 
3766 	 C 	 17.987633 	 42.929268 	 36.729994 	 C 	 1  ala 	 1.000000 
3767 	 C 	 17.180051 	 42.844053 	 36.146428 	 C 	 1  ala 	 1.000000 
3768 	 C 	 16.945427 	 42.890444 	 35.175449 	 C 	 1  ala 	 1.000000 
3769 	 C 	 17.679477 	 42.211387 	 35.168218 	 C 	 1  ala 	 1.000000 
3770 	 C 	 17.208753 	 43.062404 	 35.401005 	 C 	 1  ala 	 1.000000 
3771 	 C 	 16.382147 	 43.265406 	 34.876113 	 C 	 1  ala 	 1.000000 
3772 	 C 	 16.036489 	 42.357039 	 34.640759 	 C 	 1  ala 	 1.000000 
3773 	 C 	 15.679363 	 43.286488 	 34.733418 	 C 	 1  ala 	 1.000000 
3774 	 C 	 16.263115 	 43.522236 	 33.956464 	 C 	 1  ala 	 1.000000 
3775 	 C 	 15.986175 	 43.203477 	 34.862939 	 C 	 1  ala 	 1.000000 
3776 	 C 	 16.650061 	 42.455644 	 34.863992 	 C 	 1  ala 	 1.000000 
3777 	 C 	 17.307254 	 41.895088 	 35.367852 	 C 	 1  ala 	 1.000000 
3778 	 C 	 16.515102 	 41.697313 	 34.790461 	 C 	 1  ala 	 1.000000 
3779 	 C 	 17.081503 	 41.063339 	 34.263900 	 C 	 1  ala 	 1.000000 
3780 	 C 	 17.669749 	 41.556726 	 34.904631 	 C 	 1  ala 	 1.000000 
3781 	 C 	 18.160594 	 41.583588 	 34.033798 	 C 	 1  ala 	 1.000000 
3782 	 C 	 18.183962 	 42.056495 	 34.914601 	 C 	 1  ala 	 1.000000 
3783 	 C 	 18.470525 	 42.279093 	 33.982757 	 C 	 1  ala 	 1.000000 
3784 	 C 	 18.761555 	 43.192649 	 34.266863 	 C 	 1  ala 	 1.000000 
3785 	 C 	 18.723443 	 43.754297 	 35.093362 	 C 	 1  ala 	 1.000000 
3786 	 C 	 18.716589 	 43.805859 	 36.092008 	 C 	 1  ala 	 1.000000 
3787 	 C 	 17.745150 	 44.012093 	 35.974650 	 C 	 1  ala 	 1.000000 
3788 	 C 	 18.341836 	 43.216952 	 35.866413 	 C 	 1  ala 	 1.000000 
3789 	 C 	 18.558183 	 43.427380 	 36.819783 	 C 	 1  ala 	 1.000000 
3790 	 C 	 17.712523 	 43.953107 	 36.727747 	 C 	 1  ala 	 1.000000 
3791 	 C 	 17.659910 	 43.110598 	 36.191640 	 C 	 1  ala 	 1.000000 
3792 	 C 	 17.200551 	 43.274028 	 35.318554 	 C 	 1  ala 	 1.000000 
3793 	 C 	 18.101428 	 43.200462 	 34.890760 	 C 	 1  ala 	 1.000000 
3794 	 C 	 18.603269 	 42.802426 	 34.122826 	 C 	 1  ala 	 1.000000 
3795 	 C 	 18.342314 	 43.766256 	 34.176992 	 C 	 1  ala 	 1.000000 
3796 	 C 	 18.275813 	 42.849830 	 33.782351 	 C 	 1  ala 	 1.000000 
3797 	 C 	 17.828643 	 42.106295 	 34.279538 	 C 	 1  ala 	 1.000000 
3798 	 C 	 17.362813 	 41.735295 	 33.476194 	 C 	 1  ala 	 1.000000 
3799 	 C 	 17.232816 	 41.871174 	 32.494034 	 C 	 1  ala 	 1.000000 
3800 	 C 	 16.361167 	 41.936026 	 32.979855 	 C 	 1  ala 	 1.000000 
3801 	 C 	 16.358523 	 40.948541 	 32.822165 	 C 	 1  ala 	 1.000000 
3802 	 C 	 15.916824 	 40.109339 	 33.139406 	 C 	 1  ala 	 1.000000 
3803 	 C 	 15.600835 	 39.637253 	 33.962379 	 C 	 1  ala 	 1.000000 
3804 	 C 	 16.425684 	 40.201073 	 33.920765 	 C 	 1  ala 	 1.000000 
3805 	 C 	 16.789696 	 39.751876 	 33.104850 	 C 	 1  ala 	 1.000000 
3806 	 C 	 16.051216 	 39.224360 	 33.524819 	 C 	 1  ala 	 1.000000 
3807 	 C 	 15.979601 	 38.761193 	 34.408192 	 C 	 1  ala 	 1.000000 
3808 	 C 	 15.616147 	 37.969759 	 33.916732 	 C 	 1  ala 	 1.000000 
3809 	 C 	 14.989569 	 37.628571 	 34.617439 	 C 	 1  ala 	 1.000000 
3810 	 C 	 14.687809 	 37.299504 	 33.722645 	 C 	 1  ala 	 1.000000 
3811 	 C 	 14.650587 	 37.205579 	 34.717528 	 C 	 1  ala 	 1.000000 
3812 	 C 	 15.600041 	 37.286837 	 34.414322 	 C 	 1  ala 	 1.000000 
3813 	 C 	 15.362108 	 37.374727 	 35.381619 	 C 	 1  ala 	 1.000000 
3814 	 C 	 16.246298 	 36.915621 	 35.467821 	 C 	 1  ala 	 1.000000 
3815 	 C 	 15.382707 	 36.511548 	 35.769375 	 C 	 1  ala 	 1.000000 
3816 	 C 	 15.254394 	 37.165589 	 35.023879 	 C 	 1  ala 	 1.000000 
3817 	 C 	 14.728768 	 36.969787 	 34.196002 	 C 	 1  ala 	 1.000000 
3818 	 C 	 15.216854 	 36.366391 	 34.826625 	 C 	 1  ala 	 1.000000 
3819 	 C 	 15.032072 	 37.290874 	 34.493180 	 C 	 1  ala 	 1.000000 
3820 	 C 	 15.838176 	 36.728473 	 34.677302 	 C 	 1  ala 	 1.000000 
3821 	 C 	 16.678229 	 36.933783 	 35.179456 	 C 	 1  ala 	 1.000000 
3822 	 C 	 17.086864 	 36.160115 	 34.695250 	 C 	 1  ala 	 1.000000 
3823 	 C 	 17.575901 	 37.024014 	 34.574748 	 C 	 1  ala 	 1.000000 
3824 	 C 	 17.440822 	 36.633216 	 35.485259 	 C 	 1  ala 	 1.000000 
3825 	 C 	 17.367352 	 36.793986 	 36.469512 	 C 	 1  ala 	 1.000000 
3826 	 C 	 17.729415 	 37.615805 	 36.909427 	 C 	 1  ala 	 1.000000 
3827 	 C 	 16.926112 	 37.898993 	 36.385490 	 C 	 1  ala 	 1.000000 
3828 	 C 	 16.247842 	 37.217430 	 36.110859 	 C 	 1  ala 	 1.000000 
3829 	 C 	 16.215519 	 36.980619 	 35.139841 	 C 	 1  ala 	 1.000000 
3830 	 C 	 16.035386 	 37.717691 	 35.791207 	 C 	 1  ala 	 1.000000 
3831 	 C 	 15.873544 	 36.813084 	 36.185535 	 C 	 1  ala 	 1.000000 
3832 	 C 	 16.218893 	 37.476031 	 36.849791 	 C 	 1  ala 	 1.000000 
3833 	 C 	 16.717338 	 36.609798 	 36.884343 	 C 	 1  ala 	 1.000000 
3834 	 C 	 16.807446 	 35.923890 	 36.162256 	 C 	 1  ala 	 1.000000 
3835 	 C 	 16.992820 	 36.383402 	 35.293646 	 C 	 1  ala 	 1.000000 
3836 	 C 	 17.258585 	 36.722566 	 34.391239 	 C 	 1  ala 	 1.000000 
3837 	 C 	 17.171222 	 36.610160 	 35.381054 	 C 	 1  ala 	 1.000000 
3838 	 C 	 16.508166 	 35.876539 	 35.529902 	 C 	 1  ala 	 1.000000 
3839 	 C 	 16.757348 	 34.950076 	 35.247813 	 C 	 1  ala 	 1.000000 
3840 	 C 	 17.155307 	 35.691781 	 34.707904 	 C 	 1  ala 	 1.000000 
3841 	 C 	 16.516354 	 35.966435 	 35.426447 	 C 	 1  ala 	 1.000000 
3842 	 C 	 16.844741 	 35.054733 	 35.673352 	 C 	 1  ala 	 1.000000 
3843 	 C 	 15.863072 	 35.147848 	 35.507049 	 C 	 1  ala 	 1.000000 
3844 	 C 	 15.906382 	 35.493055 	 34.569523 	 C 	 1  ala 	 1.000000 
3845 	 C 	 14.960803 	 35.735292 	 34.786784 	 C 	 1  ala 	 1.000000 
3846 	 C 	 15.224252 	 35.054848 	 35.470590 	 C 	 1  ala 	 1.000000 
3847 	 C 	 14.457144 	 35.562356 	 35.862994 	 C 	 1  ala 	 1.000000 
3848 	 C 	 15.153681 	 35.030102 	 36.344182 	 C 	 1  ala 	 1.000000 
3849 	 C 	 14.749898 	 35.756092 	 36.900866 	 C 	 1  ala 	 1.000000 
3850 	 C 	 15.157042 	 36.528739 	 37.387950 	 C 	 1  ala 	 1.000000 
3851 	 C 	 15.770158 	 35.738776 	 37.394783 	 C 	 1  ala 	 1.000000 
3852 	 C 	 15.693123 	 35.758557 	 36.397951 	 C 	 1  ala 	 1.000000 
3853 	 C 	 15.328403 	 34.899123 	 36.039687 	 C 	 1  ala 	 1.000000 
3854 	 C 	 15.869552 	 34.657199 	 36.845063 	 C 	 1  ala 	 1.000000 
3855 	 C 	 15.452650 	 34.611514 	 37.752865 	 C 	 1  ala 	 1.000000 
3856 	 C 	 15.912624 	 35.323101 	 38.283966 	 C 	 1  ala 	 1.000000 
3857 	 C 	 16.525019 	 35.621988 	 37.552092 	 C 	 1  ala 	 1.000000 
3858 	 C 	 16.516801 	 34.803677 	 36.977375 	 C 	 1  ala 	 1.000000 
3859 	 C 	 17.494564 	 34.798909 	 37.187031 	 C 	 1  ala 	 1.000000 
3860 	 C 	 17.976612 	 35.163635 	 36.390410 	 C 	 1  ala 	 1.000000 
3861 	 C 	 18.603314 	 35.189224 	 35.611571 	 C 	 1  ala 	 1.000000 
3862 	 C 	 18.002071 	 34.951341 	 36.374407 	 C 	 1  ala 	 1.000000 
3863 	 C 	 17.543986 	 35.829558 	 36.236952 	 C 	 1  ala 	 1.000000 
3864 	 C 	 17.055390 	 36.264971 	 36.993053 	 C 	 1  ala 	 1.000000 
3865 	 C 	 16.949496 	 36.738041 	 36.118415 	 C 	 1  ala 	 1.000000 
3866 	 C 	 16.371963 	 37.459119 	 35.735661 	 C 	 1  ala 	 1.000000 
3867 	 C 	 15.400204 	 37.677971 	 35.823913 	 C 	 1  ala 	 1.000000 
3868 	 C 	 14.660351 	 37.011366 	 35.914770 	 C 	 1  ala 	 1.000000 
3869 	 C 	 15.476629 	 37.185190 	 36.465655 	 C 	 1  ala 	 1.000000 
3870 	 C 	 15.561519 	 36.275319 	 36.871769 	 C 	 1  ala 	 1.000000 
3871 	 C 	 16.125528 	 36.081005 	 37.674350 	 C 	 1  ala 	 1.000000 
3872 	 C 	 16.940847 	 36.409610 	 37.197618 	 C 	 1  ala 	 1.000000 
3873 	 C 	 17.450992 	 36.569805 	 38.042656 	 C 	 1  ala 	 1.000000 
3874 	 C 	 18.243743 	 36.174805 	 37.578414 	 C 	 1  ala 	 1.000000 
3875 	 C 	 18.550411 	 37.124331 	 37.644416 	 C 	 1  ala 	 1.000000 
3876 	 C 	 18.635552 	 37.173950 	 36.649283 	 C 	 1  ala 	 1.000000 
3877 	 C 	 19.580776 	 36.950452 	 36.887193 	 C 	 1  ala 	 1.000000 
3878 	 C 	 20.196012 	 36.564744 	 37.574735 	 C 	 1  ala 	 1.000000 
3879 	 C 	 20.564997 	 35.669853 	 37.323700 	 C 	 1  ala 	 1.000000 
3880 	 C 	 20.476933 	 35.018554 	 38.077394 	 C 	 1  ala 	 1.000000 
3881 	 C 	 20.445435 	 35.284924 	 39.040750 	 C 	 1  ala 	 1.000000 
3882 	 C 	 19.496657 	 35.386668 	 39.339863 	 C 	 1  ala 	 1.000000 
3883 	 C 	 19.168228 	 34.442336 	 39.320581 	 C 	 1  ala 	 1.000000 
3884 	 C 	 19.372239 	 34.387887 	 40.298034 	 C 	 1  ala 	 1.000000 
3885 	 C 	 19.562255 	 33.484154 	 39.914419 	 C 	 1  ala 	 1.000000 
3886 	 C 	 19.566756 	 33.677075 	 38.933215 	 C 	 1  ala 	 1.000000 
3887 	 C 	 18.847015 	 33.033170 	 38.673678 	 C 	 1  ala 	 1.000000 
3888 	 C 	 18.791923 	 33.861482 	 39.231230 	 C 	 1  ala 	 1.000000 
3889 	 C 	 17.830278 	 33.744098 	 39.479144 	 C 	 1  ala 	 1.000000 
3890 	 C 	 16.969825 	 34.253620 	 39.476486 	 C 	 1  ala 	 1.000000 
3891 	 C 	 16.810938 	 33.447445 	 40.046430 	 C 	 1  ala 	 1.000000 
3892 	 C 	 16.484302 	 33.854818 	 40.899282 	 C 	 1  ala 	 1.000000 
3893 	 C 	 17.337303 	 33.446902 	 41.224850 	 C 	 1  ala 	 1.000000 
3894 	 C 	 17.373769 	 34.291962 	 41.758277 	 C 	 1  ala 	 1.000000 
3895 	 C 	 17.029763 	 33.643751 	 41.078951 	 C 	 1  ala 	 1.000000 
3896 	 C 	 17.853005 	 33.076064 	 41.081110 	 C 	 1  ala 	 1.000000 
3897 	 C 	 17.865478 	 32.238582 	 41.627433 	 C 	 1  ala 	 1.000000 
3898 	 C 	 17.004690 	 32.499193 	 41.190254 	 C 	 1  ala 	 1.000000 
3899 	 C 	 16.739919 	 31.550036 	 41.360539 	 C 	 1  ala 	 1.000000 
3900 	 C 	 17.506543 	 32.108473 	 41.677453 	 C 	 1  ala 	 1.000000 
3901 	 C 	 17.806598 	 32.496705 	 42.548798 	 C 	 1  ala 	 1.000000 
3902 	 C 	 17.425109 	 33.216371 	 43.128926 	 C 	 1  ala 	 1.000000 
3903 	 C 	 17.802029 	 32.290914 	 43.090697 	 C 	 1  ala 	 1.000000 
3904 	 C 	 18.687001 	 32.361635 	 43.550938 	 C 	 1  ala 	 1.000000 
3905 	 C 	 19.015529 	 33.203700 	 43.978719 	 C 	 1  ala 	 1.000000 
3906 	 C 	 19.695887 	 32.660048 	 43.487237 	 C 	 1  ala 	 1.000000 
3907 	 C 	 19.359667 	 33.295244 	 44.182565 	 C 	 1  ala 	 1.000000 
3908 	 C 	 20.185765 	 33.853868 	 44.256735 	 C 	 1  ala 	 1.000000 
3909 	 C 	 21.080654 	 34.295836 	 44.194781 	 C 	 1  ala 	 1.000000 
3910 	 C 	 21.976396 	 34.407196 	 43.764380 	 C 	 1  ala 	 1.000000 
3911 	 C 	 22.875437 	 34.840033 	 43.698230 	 C 	 1  ala 	 1.000000 
3912 	 C 	 22.389830 	 35.621989 	 43.307422 	 C 	 1  ala 	 1.000000 
3913 	 C 	 21.825739 	 35.460063 	 44.117102 	 C 	 1  ala 	 1.000000 
3914 	 C 	 21.696296 	 35.782646 	 43.179454 	 C 	 1  ala 	 1.000000 
3915 	 C 	 21.839218 	 36.771899 	 43.210288 	 C 	 1  ala 	 1.000000 
3916 	 C 	 21.902020 	 36.440397 	 42.268926 	 C 	 1  ala 	 1.000000 
3917 	 C 	 22.626118 	 36.392067 	 42.956928 	 C 	 1  ala 	 1.000000 
3918 	 C 	 21.828929 	 36.617984 	 43.516795 	 C 	 1  ala 	 1.000000 
3919 	 C 	 21.157464 	 36.167943 	 42.928070 	 C 	 1  ala 	 1.000000 
3920 	 C 	 20.534029 	 36.239904 	 42.149513 	 C 	 1  ala 	 1.000000 
3921 	 C 	 19.723650 	 36.671394 	 41.753153 	 C 	 1  ala 	 1.000000 
3922 	 C 	 20.287729 	 36.637488 	 40.928129 	 C 	 1  ala 	 1.000000 
3923 	 C 	 21.246528 	 36.604802 	 41.210326 	 C 	 1  ala 	 1.000000 
3924 	 C 	 21.103351 	 36.568980 	 42.199375 	 C 	 1  ala 	 1.000000 
3925 	 C 	 20.897130 	 35.695663 	 42.640726 	 C 	 1  ala 	 1.000000 
3926 	 C 	 21.619136 	 35.504094 	 41.975889 	 C 	 1  ala 	 1.000000 
3927 	 C 	 22.360252 	 35.527685 	 41.304926 	 C 	 1  ala 	 1.000000 
3928 	 C 	 22.891179 	 36.293058 	 40.941165 	 C 	 1  ala 	 1.000000 
3929 	 C 	 22.179132 	 36.964436 	 41.146692 	 C 	 1  ala 	 1.000000 
3930 	 C 	 21.918258 	 36.687551 	 42.071505 	 C 	 1  ala 	 1.000000 
3931 	 C 	 21.195768 	 36.150970 	 41.635513 	 C 	 1  ala 	 1.000000 
3932 	 C 	 21.052843 	 37.128215 	 41.478781 	 C 	 1  ala 	 1.000000 
3933 	 C 	 22.015529 	 37.360424 	 41.617758 	 C 	 1  ala 	 1.000000 
3934 	 C 	 21.260401 	 36.805056 	 41.269409 	 C 	 1  ala 	 1.000000 
3935 	 C 	 21.280235 	 36.492743 	 40.319636 	 C 	 1  ala 	 1.000000 
3936 	 C 	 21.791779 	 36.810527 	 39.521303 	 C 	 1  ala 	 1.000000 
3937 	 C 	 21.742974 	 36.982220 	 38.537362 	 C 	 1  ala 	 1.000000 
3938 	 C 	 22.532594 	 37.432528 	 38.954163 	 C 	 1  ala 	 1.000000 
3939 	 C 	 22.456478 	 37.915478 	 39.826497 	 C 	 1  ala 	 1.000000 
3940 	 C 	 22.953559 	 38.753296 	 39.600729 	 C 	 1  ala 	 1.000000 
3941 	 C 	 22.474172 	 37.885380 	 39.730770 	 C 	 1  ala 	 1.000000 
3942 	 C 	 23.326307 	 38.022873 	 40.235708 	 C 	 1  ala 	 1.000000 
3943 	 C 	 22.603390 	 37.341489 	 40.121225 	 C 	 1  ala 	 1.000000 
3944 	 C 	 23.275408 	 38.015923 	 39.815398 	 C 	 1  ala 	 1.000000 
3945 	 C 	 23.086454 	 38.958305 	 39.539331 	 C 	 1  ala 	 1.000000 
3946 	 C 	 23.570718 	 39.646564 	 38.999157 	 C 	 1  ala 	 1.000000 
3947 	 C 	 24.101116 	 40.490692 	 39.077429 	 C 	 1  ala 	 1.000000 
3948 	 C 	 24.449457 	 40.431582 	 40.012931 	 C 	 1  ala 	 1.000000 
3949 	 C 	 23.903244 	 39.597445 	 40.089524 	 C 	 1  ala 	 1.000000 
3950 	 C 	 23.760048 	 40.583315 	 40.002605 	 C 	 1  ala 	 1.000000 
3951 	 C 	 23.751643 	 41.150923 	 39.179348 	 C 	 1  ala 	 1.000000 
3952 	 C 	 23.559408 	 41.370618 	 38.222907 	 C 	 1  ala 	 1.000000 
3953 	 C 	 23.788037 	 41.288260 	 37.252884 	 C 	 1  ala 	 1.000000 
3954 	 C 	 22.995233 	 40.718286 	 37.468735 	 C 	 1  ala 	 1.000000 
3955 	 C 	 23.832166 	 40.452409 	 36.990350 	 C 	 1  ala 	 1.000000 
3956 	 C 	 23.476125 	 40.099817 	 37.855747 	 C 	 1  ala 	 1.000000 
3957 	 C 	 23.923875 	 39.211318 	 37.956199 	 C 	 1  ala 	 1.000000 
3958 	 C 	 23.097835 	 39.308215 	 38.511418 	 C 	 1  ala 	 1.000000 
3959 	 C 	 23.593302 	 39.782448 	 39.239164 	 C 	 1  ala 	 1.000000 
3960 	 C 	 23.350823 	 39.936357 	 40.197035 	 C 	 1  ala 	 1.000000 
3961 	 C 	 22.388919 	 39.664728 	 40.227985 	 C 	 1  ala 	 1.000000 
3962 	 C 	 22.537609 	 38.845023 	 40.781134 	 C 	 1  ala 	 1.000000 
3963 	 C 	 23.401587 	 39.017406 	 40.308032 	 C 	 1  ala 	 1.000000 
3964 	 C 	 23.803738 	 38.619710 	 39.483343 	 C 	 1  ala 	 1.000000 
3965 	 C 	 24.135468 	 37.905529 	 38.866982 	 C 	 1  ala 	 1.000000 
3966 	 C 	 24.381808 	 37.804377 	 39.830873 	 C 	 1  ala 	 1.000000 
3967 	 C 	 23.469775 	 37.769168 	 40.239474 	 C 	 1  ala 	 1.000000 
3968 	 C 	 24.313430 	 37.399391 	 40.628718 	 C 	 1  ala 	 1.000000 
3969 	 C 	 23.824100 	 37.459649 	 41.498732 	 C 	 1  ala 	 1.000000 
3970 	 C 	 23.029056 	 37.602449 	 40.909228 	 C 	 1  ala 	 1.000000 
3971 	 C 	 22.600043 	 38.353557 	 41.411009 	 C 	 1  ala 	 1.000000 
3972 	 C 	 22.580634 	 37.372644 	 41.217532 	 C 	 1  ala 	 1.000000 
3973 	 C 	 22.486663 	 38.366439 	 41.277048 	 C 	 1  ala 	 1.000000 
3974 	 C 	 23.012265 	 37.828110 	 40.618303 	 C 	 1  ala 	 1.000000 
3975 	 C 	 23.994815 	 37.826262 	 40.804296 	 C 	 1  ala 	 1.000000 
3976 	 C 	 24.308114 	 38.365995 	 40.022930 	 C 	 1  ala 	 1.000000 
3977 	 C 	 24.965234 	 37.768891 	 39.562865 	 C 	 1  ala 	 1.000000 
3978 	 C 	 24.316399 	 38.302394 	 40.105440 	 C 	 1  ala 	 1.000000 
3979 	 C 	 24.098789 	 38.065407 	 41.052268 	 C 	 1  ala 	 1.000000 
3980 	 C 	 23.135965 	 37.862372 	 40.874094 	 C 	 1  ala 	 1.000000 
3981 	 C 	 23.336902 	 37.323300 	 41.692034 	 C 	 1  ala 	 1.000000 
3982 	 C 	 23.924130 	 36.792325 	 42.302959 	 C 	 1  ala 	 1.000000 
3983 	 C 	 23.732842 	 37.765468 	 42.431029 	 C 	 1  ala 	 1.000000 
3984 	 C 	 23.320647 	 36.854582 	 42.450587 	 C 	 1  ala 	 1.000000 
3985 	 C 	 23.323451 	 35.857204 	 42.378265 	 C 	 1  ala 	 1.000000 
3986 	 C 	 22.964106 	 36.754712 	 42.633902 	 C 	 1  ala 	 1.000000 
3987 	 C 	 23.429833 	 36.456075 	 43.466917 	 C 	 1  ala 	 1.000000 
3988 	 C 	 22.627267 	 36.097232 	 42.990347 	 C 	 1  ala 	 1.000000 
3989 	 C 	 23.014074 	 36.976194 	 43.269287 	 C 	 1  ala 	 1.000000 
3990 	 C 	 23.223144 	 37.736661 	 43.884086 	 C 	 1  ala 	 1.000000 
3991 	 C 	 22.345310 	 37.688686 	 44.360643 	 C 	 1  ala 	 1.000000 
3992 	 C 	 22.973388 	 37.497928 	 43.606237 	 C 	 1  ala 	 1.000000 
3993 	 C 	 22.046535 	 37.193971 	 43.826585 	 C 	 1  ala 	 1.000000 
3994 	 C 	 22.714104 	 37.869083 	 43.512618 	 C 	 1  ala 	 1.000000 
3995 	 C 	 22.196084 	 37.063604 	 43.224765 	 C 	 1  ala 	 1.000000 
3996 	 C 	 21.344646 	 36.566761 	 43.392693 	 C 	 1  ala 	 1.000000 
3997 	 C 	 22.314737 	 36.326333 	 43.426113 	 C 	 1  ala 	 1.000000 
3998 	 C 	 23.076655 	 35.737938 	 43.155424 	 C 	 1  ala 	 1.000000 
3999 	 C 	 22.671550 	 36.649436 	 43.226564 	 C 	 1  ala 	 1.000000 
4000 	 C 	 22.599130 	 37.578301 	 42.863293 	 C 	 1  ala 	 1.000000 
4001 	 C 	 22.814018 	 37.204511 	 41.961016 	 C 	 1  ala 	 1.000000 
4002 	 C 	 23.646356 	 36.871758 	 42.404287 	 C 	 1  ala 	 1.000000 
4003 	 C 	 24.098714 	 36.226505 	 41.788641 	 C 	 1  ala 	 1.000000 
4004 	 C 	 23.996156 	 37.221148 	 41.801580 	 C 	 1  ala 	 1.000000 
4005 	 C 	 24.211847 	 37.969681 	 42.428617 	 C 	 1  ala 	 1.000000 
4006 	 C 	 24.676819 	 37.255060 	 41.906010 	 C 	 1  ala 	 1.000000 
4007 	 C 	 24.026056 	 36.554430 	 42.198627 	 C 	 1  ala 	 1.000000 
4008 	 C 	 24.219571 	 37.529588 	 42.306418 	 C 	 1  ala 	 1.000000 
4009 	 C 	 23.422190 	 36.979492 	 42.554567 	 C 	 1  ala 	 1.000000 
4010 	 C 	 23.255961 	 36.152888 	 43.092242 	 C 	 1  ala 	 1.000000 
4011 	 C 	 23.460000 	 36.776857 	 42.337900 	 C 	 1  ala 	 1.000000 
4012 	 C 	 22.609848 	 37.174854 	 41.993168 	 C 	 1  ala 	 1.000000 
4013 	 C 	 21.772774 	 37.660481 	 41.741228 	 C 	 1  ala 	 1.000000 
4014 	 C 	 22.233926 	 37.709787 	 40.855278 	 C 	 1  ala 	 1.000000 
4015 	 C 	 23.016914 	 38.094200 	 41.344314 	 C 	 1  ala 	 1.000000 
4016 	 C 	 23.579335 	 37.654566 	 42.044603 	 C 	 1  ala 	 1.000000 
4017 	 C 	 22.825626 	 37.458844 	 42.671991 	 C 	 1  ala 	 1.000000 
4018 	 C 	 23.097794 	 38.408899 	 42.824700 	 C 	 1  ala 	 1.000000 
4019 	 C 	 23.889769 	 38.045112 	 42.334358 	 C 	 1  ala 	 1.000000 
4020 	 C 	 24.840772 	 38.190271 	 42.061373 	 C 	 1  ala 	 1.000000 
4021 	 C 	 24.624288 	 37.837413 	 41.151084 	 C 	 1  ala 	 1.000000 
4022 	 C 	 25.162886 	 38.654504 	 40.945479 	 C 	 1  ala 	 1.000000 
4023 	 C 	 25.943066 	 38.293253 	 40.434777 	 C 	 1  ala 	 1.000000 
4024 	 C 	 25.111197 	 38.605662 	 39.976090 	 C 	 1  ala 	 1.000000 
4025 	 C 	 24.981795 	 39.364709 	 40.614136 	 C 	 1  ala 	 1.000000 
4026 	 C 	 24.830608 	 40.130948 	 41.238652 	 C 	 1  ala 	 1.000000 
4027 	 C 	 25.803824 	 40.244435 	 41.438579 	 C 	 1  ala 	 1.000000 
4028 	 C 	 25.537162 	 39.875262 	 40.548297 	 C 	 1  ala 	 1.000000 
4029 	 C 	 25.752718 	 40.826321 	 40.326884 	 C 	 1  ala 	 1.000000 
4030 	 C 	 25.049523 	 40.940854 	 41.028596 	 C 	 1  ala 	 1.000000 
4031 	 C 	 24.735627 	 41.426339 	 41.844546 	 C 	 1  ala 	 1.000000 
4032 	 C 	 25.325431 	 40.619076 	 41.865952 	 C 	 1  ala 	 1.000000 
4033 	 C 	 24.675392 	 40.327429 	 42.567658 	 C 	 1  ala 	 1.000000 
4034 	 C 	 25.477473 	 40.886289 	 42.778229 	 C 	 1  ala 	 1.000000 
4035 	 C 	 25.618449 	 41.808272 	 43.138886 	 C 	 1  ala 	 1.000000 
4036 	 C 	 25.707292 	 42.159794 	 42.206932 	 C 	 1  ala 	 1.000000 
4037 	 C 	 24.804053 	 41.764480 	 42.373925 	 C 	 1  ala 	 1.000000 
4038 	 C 	 24.469216 	 41.150762 	 43.088931 	 C 	 1  ala 	 1.000000 
4039 	 C 	 24.617294 	 40.177138 	 43.262513 	 C 	 1  ala 	 1.000000 
4040 	 C 	 25.093269 	 40.910347 	 43.748159 	 C 	 1  ala 	 1.000000 
4041 	 C 	 24.243379 	 40.501182 	 43.416086 	 C 	 1  ala 	 1.000000 
4042 	 C 	 24.976241 	 39.961475 	 43.001804 	 C 	 1  ala 	 1.000000 
4043 	 C 	 24.262688 	 40.024652 	 42.304057 	 C 	 1  ala 	 1.000000 
4044 	 C 	 24.766061 	 39.287029 	 41.854026 	 C 	 1  ala 	 1.000000 
4045 	 C 	 25.303850 	 39.355617 	 41.013742 	 C 	 1  ala 	 1.000000 
4046 	 C 	 24.338100 	 39.425972 	 41.263493 	 C 	 1  ala 	 1.000000 
4047 	 C 	 25.114870 	 39.264872 	 41.872324 	 C 	 1  ala 	 1.000000 
4048 	 C 	 24.578636 	 38.559640 	 42.336114 	 C 	 1  ala 	 1.000000 
4049 	 C 	 23.908624 	 37.817336 	 42.344447 	 C 	 1  ala 	 1.000000 
4050 	 C 	 23.384248 	 37.212621 	 41.744989 	 C 	 1  ala 	 1.000000 
4051 	 C 	 23.882059 	 36.369808 	 41.540415 	 C 	 1  ala 	 1.000000 
4052 	 C 	 23.801952 	 37.366571 	 41.547237 	 C 	 1  ala 	 1.000000 
4053 	 C 	 23.297602 	 36.550759 	 41.264250 	 C 	 1  ala 	 1.000000 
4054 	 C 	 23.937161 	 37.266472 	 40.983682 	 C 	 1  ala 	 1.000000 
4055 	 C 	 23.152748 	 36.869257 	 41.460039 	 C 	 1  ala 	 1.000000 
4056 	 C 	 22.773668 	 36.161932 	 40.863391 	 C 	 1  ala 	 1.000000 
4057 	 C 	 23.123281 	 35.365534 	 41.356870 	 C 	 1  ala 	 1.000000 
4058 	 C 	 23.598411 	 34.625256 	 40.881224 	 C 	 1  ala 	 1.000000 
4059 	 C 	 22.708792 	 34.263316 	 40.602693 	 C 	 1  ala 	 1.000000 
4060 	 C 	 23.552270 	 34.542306 	 41.061725 	 C 	 1  ala 	 1.000000 
4061 	 C 	 22.869296 	 34.062841 	 40.510672 	 C 	 1  ala 	 1.000000 
4062 	 C 	 22.401305 	 33.275366 	 40.911755 	 C 	 1  ala 	 1.000000 
4063 	 C 	 22.548445 	 34.012780 	 40.252536 	 C 	 1  ala 	 1.000000 
4064 	 C 	 22.577451 	 34.879489 	 39.754566 	 C 	 1  ala 	 1.000000 
4065 	 C 	 22.147140 	 34.015129 	 39.494348 	 C 	 1  ala 	 1.000000 
4066 	 C 	 22.066016 	 33.997423 	 40.490895 	 C 	 1  ala 	 1.000000 
4067 	 C 	 22.724560 	 33.245288 	 40.515648 	 C 	 1  ala 	 1.000000 
4068 	 C 	 23.205133 	 32.655372 	 41.164530 	 C 	 1  ala 	 1.000000 
4069 	 C 	 23.921393 	 32.052108 	 40.813754 	 C 	 1  ala 	 1.000000 
4070 	 C 	 23.608727 	 33.000136 	 40.754748 	 C 	 1  ala 	 1.000000 
4071 	 C 	 23.246450 	 32.105445 	 41.016060 	 C 	 1  ala 	 1.000000 
4072 	 C 	 23.309509 	 32.493857 	 40.096735 	 C 	 1  ala 	 1.000000 
4073 	 C 	 22.727696 	 33.026869 	 39.482412 	 C 	 1  ala 	 1.000000 
4074 	 C 	 23.618095 	 33.015886 	 39.937460 	 C 	 1  ala 	 1.000000 
4075 	 C 	 23.859007 	 32.129591 	 39.541932 	 C 	 1  ala 	 1.000000 
4076 	 C 	 24.007924 	 32.325151 	 40.511251 	 C 	 1  ala 	 1.000000 
4077 	 C 	 24.721029 	 32.242060 	 41.207367 	 C 	 1  ala 	 1.000000 
4078 	 C 	 24.276216 	 31.575398 	 40.609284 	 C 	 1  ala 	 1.000000 
4079 	 C 	 24.122136 	 30.637277 	 40.919426 	 C 	 1  ala 	 1.000000 
4080 	 C 	 23.883309 	 30.984146 	 41.826423 	 C 	 1  ala 	 1.000000 
4081 	 C 	 24.564991 	 31.567121 	 42.268519 	 C 	 1  ala 	 1.000000 
4082 	 C 	 23.852587 	 30.897905 	 42.057257 	 C 	 1  ala 	 1.000000 
4083 	 C 	 23.593411 	 31.701687 	 42.592758 	 C 	 1  ala 	 1.000000 
4084 	 C 	 23.745452 	 31.561449 	 41.614384 	 C 	 1  ala 	 1.000000 
4085 	 C 	 23.249190 	 32.286123 	 42.092475 	 C 	 1  ala 	 1.000000 
4086 	 C 	 23.618721 	 33.214737 	 42.125988 	 C 	 1  ala 	 1.000000 
4087 	 C 	 23.936369 	 33.984921 	 41.572891 	 C 	 1  ala 	 1.000000 
4088 	 C 	 24.238683 	 34.738736 	 42.156303 	 C 	 1  ala 	 1.000000 
4089 	 C 	 25.031694 	 34.642354 	 42.757837 	 C 	 1  ala 	 1.000000 
4090 	 C 	 24.328984 	 35.086221 	 43.313877 	 C 	 1  ala 	 1.000000 
4091 	 C 	 24.784742 	 34.401283 	 42.745419 	 C 	 1  ala 	 1.000000 
4092 	 C 	 25.350029 	 35.212171 	 42.594054 	 C 	 1  ala 	 1.000000 
4093 	 C 	 25.385517 	 35.004580 	 43.571626 	 C 	 1  ala 	 1.000000 
4094 	 C 	 25.911032 	 34.366037 	 43.009401 	 C 	 1  ala 	 1.000000 
4095 	 C 	 26.374061 	 34.710716 	 43.825979 	 C 	 1  ala 	 1.000000 
4096 	 C 	 27.196133 	 35.164429 	 44.169989 	 C 	 1  ala 	 1.000000 
4097 	 C 	 28.145403 	 35.206169 	 43.858308 	 C 	 1  ala 	 1.000000 
4098 	 C 	 29.058416 	 35.261672 	 44.262444 	 C 	 1  ala 	 1.000000 
4099 	 C 	 28.693552 	 36.123034 	 43.908989 	 C 	 1  ala 	 1.000000 
4100 	 C 	 29.412979 	 35.437660 	 44.021631 	 C 	 1  ala 	 1.000000 
4101 	 C 	 29.301940 	 35.456834 	 45.015262 	 C 	 1  ala 	 1.000000 
4102 	 C 	 29.976297 	 35.727226 	 44.328144 	 C 	 1  ala 	 1.000000 
4103 	 C 	 29.702335 	 36.600891 	 43.926082 	 C 	 1  ala 	 1.000000 
4104 	 C 	 29.376983 	 36.787357 	 42.999056 	 C 	 1  ala 	 1.000000 
4105 	 C 	 30.203639 	 37.311159 	 42.793454 	 C 	 1  ala 	 1.000000 
4106 	 C 	 30.381385 	 37.651559 	 41.870126 	 C 	 1  ala 	 1.000000 
4107 	 C 	 30.102629 	 37.104880 	 42.659706 	 C 	 1  ala 	 1.000000 
4108 	 C 	 30.322853 	 37.040921 	 41.686356 	 C 	 1  ala 	 1.000000 
4109 	 C 	 31.199897 	 37.078691 	 42.165278 	 C 	 1  ala 	 1.000000 
4110 	 C 	 30.779870 	 36.261178 	 42.559293 	 C 	 1  ala 	 1.000000 
4111 	 C 	 31.446961 	 35.537140 	 42.383911 	 C 	 1  ala 	 1.000000 
4112 	 C 	 30.896677 	 36.208063 	 42.880952 	 C 	 1  ala 	 1.000000 
4113 	 C 	 31.667708 	 36.029955 	 43.492335 	 C 	 1  ala 	 1.000000 
4114 	 C 	 32.306275 	 36.427856 	 44.151051 	 C 	 1  ala 	 1.000000 
4115 	 C 	 31.632568 	 35.892496 	 43.641630 	 C 	 1  ala 	 1.000000 
4116 	 C 	 30.693965 	 35.564571 	 43.748815 	 C 	 1  ala 	 1.000000 
4117 	 C 	 29.889407 	 34.979687 	 43.645874 	 C 	 1  ala 	 1.000000 
4118 	 C 	 29.562080 	 34.376547 	 42.918495 	 C 	 1  ala 	 1.000000 
4119 	 C 	 29.705624 	 34.792783 	 43.816349 	 C 	 1  ala 	 1.000000 
4120 	 C 	 29.485433 	 35.291909 	 42.978263 	 C 	 1  ala 	 1.000000 
4121 	 C 	 30.052405 	 34.470832 	 42.912116 	 C 	 1  ala 	 1.000000 
4122 	 C 	 30.594000 	 34.600086 	 43.742759 	 C 	 1  ala 	 1.000000 
4123 	 C 	 30.954537 	 34.252670 	 42.877129 	 C 	 1  ala 	 1.000000 
4124 	 C 	 30.292675 	 33.910944 	 42.209925 	 C 	 1  ala 	 1.000000 
4125 	 C 	 30.354349 	 34.909035 	 42.213317 	 C 	 1  ala 	 1.000000 
4126 	 C 	 30.702431 	 35.422522 	 42.997645 	 C 	 1  ala 	 1.000000 
4127 	 C 	 30.702507 	 36.365143 	 43.331510 	 C 	 1  ala 	 1.000000 
4128 	 C 	 31.663321 	 36.265604 	 43.590215 	 C 	 1  ala 	 1.000000 
4129 	 C 	 31.345325 	 35.736626 	 44.377019 	 C 	 1  ala 	 1.000000 
4130 	 C 	 31.629364 	 36.214177 	 45.208444 	 C 	 1  ala 	 1.000000 
4131 	 C 	 30.640126 	 36.353325 	 45.163202 	 C 	 1  ala 	 1.000000 
4132 	 C 	 31.404447 	 35.779254 	 45.456899 	 C 	 1  ala 	 1.000000 
4133 	 C 	 31.126135 	 35.682862 	 46.412540 	 C 	 1  ala 	 1.000000 
4134 	 C 	 31.490155 	 34.807164 	 46.729781 	 C 	 1  ala 	 1.000000 
4135 	 C 	 30.828394 	 34.868454 	 47.476986 	 C 	 1  ala 	 1.000000 
4136 	 C 	 29.898576 	 35.113633 	 47.751441 	 C 	 1  ala 	 1.000000 
4137 	 C 	 30.624113 	 35.246471 	 48.426681 	 C 	 1  ala 	 1.000000 
4138 	 C 	 29.864052 	 35.888683 	 48.327331 	 C 	 1  ala 	 1.000000 
4139 	 C 	 30.476269 	 35.771658 	 47.545349 	 C 	 1  ala 	 1.000000 
4140 	 C 	 30.276736 	 34.805081 	 47.384361 	 C 	 1  ala 	 1.000000 
4141 	 C 	 30.304364 	 35.767585 	 47.654219 	 C 	 1  ala 	 1.000000 
4142 	 C 	 30.718841 	 35.218224 	 48.379761 	 C 	 1  ala 	 1.000000 
4143 	 C 	 31.468792 	 35.453546 	 48.997982 	 C 	 1  ala 	 1.000000 
4144 	 C 	 30.714334 	 35.131387 	 49.569826 	 C 	 1  ala 	 1.000000 
4145 	 C 	 30.968539 	 35.789509 	 48.861127 	 C 	 1  ala 	 1.000000 
4146 	 C 	 30.590211 	 36.343292 	 49.602876 	 C 	 1  ala 	 1.000000 
4147 	 C 	 31.031174 	 37.030577 	 50.180103 	 C 	 1  ala 	 1.000000 
4148 	 C 	 31.438901 	 36.781113 	 49.301737 	 C 	 1  ala 	 1.000000 
4149 	 C 	 31.788462 	 36.991537 	 48.388759 	 C 	 1  ala 	 1.000000 
4150 	 C 	 30.910981 	 36.886370 	 47.920819 	 C 	 1  ala 	 1.000000 
4151 	 C 	 31.332159 	 37.442170 	 48.637544 	 C 	 1  ala 	 1.000000 
4152 	 C 	 32.260501 	 37.691637 	 48.361958 	 C 	 1  ala 	 1.000000 
4153 	 C 	 32.715084 	 38.574322 	 48.481220 	 C 	 1  ala 	 1.000000 
4154 	 C 	 31.991997 	 38.349469 	 47.828084 	 C 	 1  ala 	 1.000000 
4155 	 C 	 32.752234 	 38.990481 	 47.933640 	 C 	 1  ala 	 1.000000 
4156 	 C 	 32.814711 	 38.794678 	 48.912291 	 C 	 1  ala 	 1.000000 
4157 	 C 	 33.779109 	 38.645766 	 49.130835 	 C 	 1  ala 	 1.000000 
4158 	 C 	 33.033177 	 37.985065 	 49.046823 	 C 	 1  ala 	 1.000000 
4159 	 C 	 32.850042 	 38.963649 	 49.140819 	 C 	 1  ala 	 1.000000 
4160 	 C 	 33.339696 	 39.299362 	 48.336122 	 C 	 1  ala 	 1.000000 
4161 	 C 	 34.006605 	 39.210474 	 47.596305 	 C 	 1  ala 	 1.000000 
4162 	 C 	 34.687714 	 38.488572 	 47.474034 	 C 	 1  ala 	 1.000000 
4163 	 C 	 35.310737 	 38.943084 	 48.110636 	 C 	 1  ala 	 1.000000 
4164 	 C 	 35.494540 	 38.158276 	 48.702491 	 C 	 1  ala 	 1.000000 
4165 	 C 	 35.133934 	 38.809880 	 48.035126 	 C 	 1  ala 	 1.000000 
4166 	 C 	 35.061886 	 39.285737 	 47.158559 	 C 	 1  ala 	 1.000000 
4167 	 C 	 35.759462 	 38.701235 	 46.744138 	 C 	 1  ala 	 1.000000 
4168 	 C 	 35.467111 	 38.048289 	 47.442845 	 C 	 1  ala 	 1.000000 
4169 	 C 	 35.683801 	 38.833316 	 46.862520 	 C 	 1  ala 	 1.000000 
4170 	 C 	 35.271039 	 38.705960 	 47.764411 	 C 	 1  ala 	 1.000000 
4171 	 C 	 35.616625 	 39.442413 	 47.182855 	 C 	 1  ala 	 1.000000 
4172 	 C 	 36.139629 	 39.242164 	 46.354383 	 C 	 1  ala 	 1.000000 
4173 	 C 	 35.318590 	 38.693418 	 46.196989 	 C 	 1  ala 	 1.000000 
4174 	 C 	 35.656730 	 38.743671 	 45.257235 	 C 	 1  ala 	 1.000000 
4175 	 C 	 34.944388 	 38.581288 	 44.574446 	 C 	 1  ala 	 1.000000 
4176 	 C 	 35.537799 	 38.413087 	 43.787317 	 C 	 1  ala 	 1.000000 
4177 	 C 	 34.746086 	 38.643849 	 44.352948 	 C 	 1  ala 	 1.000000 
4178 	 C 	 34.047552 	 38.721237 	 45.064328 	 C 	 1  ala 	 1.000000 
4179 	 C 	 33.444397 	 38.188225 	 44.470947 	 C 	 1  ala 	 1.000000 
4180 	 C 	 33.081438 	 37.555637 	 43.786773 	 C 	 1  ala 	 1.000000 
4181 	 C 	 33.832244 	 38.108461 	 43.425281 	 C 	 1  ala 	 1.000000 
4182 	 C 	 34.346577 	 38.584126 	 42.711695 	 C 	 1  ala 	 1.000000 
4183 	 C 	 34.288525 	 37.713866 	 43.200855 	 C 	 1  ala 	 1.000000 
4184 	 C 	 33.977664 	 36.839962 	 42.827146 	 C 	 1  ala 	 1.000000 
4185 	 C 	 34.395183 	 36.456151 	 42.003516 	 C 	 1  ala 	 1.000000 
4186 	 C 	 35.048543 	 35.838081 	 41.566354 	 C 	 1  ala 	 1.000000 
4187 	 C 	 34.825923 	 36.393127 	 40.764878 	 C 	 1  ala 	 1.000000 
4188 	 C 	 34.781396 	 35.826926 	 41.587941 	 C 	 1  ala 	 1.000000 
4189 	 C 	 34.493455 	 36.781587 	 41.663521 	 C 	 1  ala 	 1.000000 
4190 	 C 	 34.231964 	 36.015953 	 41.075791 	 C 	 1  ala 	 1.000000 
4191 	 C 	 33.312173 	 35.643708 	 41.199960 	 C 	 1  ala 	 1.000000 
4192 	 C 	 33.003034 	 36.337480 	 41.850432 	 C 	 1  ala 	 1.000000 
4193 	 C 	 32.945421 	 37.153568 	 42.425481 	 C 	 1  ala 	 1.000000 
4194 	 C 	 32.574430 	 37.426878 	 43.312988 	 C 	 1  ala 	 1.000000 
4195 	 C 	 32.591135 	 37.751678 	 42.367353 	 C 	 1  ala 	 1.000000 
4196 	 C 	 31.636343 	 37.862111 	 42.091353 	 C 	 1  ala 	 1.000000 
4197 	 C 	 32.244675 	 38.562372 	 42.464938 	 C 	 1  ala 	 1.000000 
4198 	 C 	 31.717498 	 39.407348 	 42.374933 	 C 	 1  ala 	 1.000000 
4199 	 C 	 30.875447 	 38.971727 	 42.693030 	 C 	 1  ala 	 1.000000 
4200 	 C 	 30.619380 	 38.731811 	 41.756617 	 C 	 1  ala 	 1.000000 
4201 	 C 	 29.730550 	 38.990923 	 42.134560 	 C 	 1  ala 	 1.000000 
4202 	 C 	 30.408269 	 39.559092 	 42.601338 	 C 	 1  ala 	 1.000000 
4203 	 C 	 29.786752 	 39.806770 	 43.344555 	 C 	 1  ala 	 1.000000 
4204 	 C 	 30.030619 	 39.935964 	 42.383390 	 C 	 1  ala 	 1.000000 
4205 	 C 	 30.919589 	 39.663631 	 42.015198 	 C 	 1  ala 	 1.000000 
4206 	 C 	 30.936088 	 39.576172 	 41.019167 	 C 	 1  ala 	 1.000000 
4207 	 C 	 31.519930 	 38.836811 	 40.683795 	 C 	 1  ala 	 1.000000 
4208 	 C 	 32.302981 	 39.284588 	 41.115451 	 C 	 1  ala 	 1.000000 
4209 	 C 	 31.446923 	 39.473832 	 40.634462 	 C 	 1  ala 	 1.000000 
4210 	 C 	 31.354813 	 39.602547 	 41.621857 	 C 	 1  ala 	 1.000000 
4211 	 C 	 30.426643 	 39.255927 	 41.486379 	 C 	 1  ala 	 1.000000 
4212 	 C 	 31.063147 	 39.986393 	 41.238827 	 C 	 1  ala 	 1.000000 
4213 	 C 	 31.831879 	 40.140677 	 40.618144 	 C 	 1  ala 	 1.000000 
4214 	 C 	 31.337088 	 40.874864 	 40.153224 	 C 	 1  ala 	 1.000000 
4215 	 C 	 30.859719 	 40.424882 	 39.398482 	 C 	 1  ala 	 1.000000 
4216 	 C 	 30.836332 	 39.773618 	 40.156973 	 C 	 1  ala 	 1.000000 
4217 	 C 	 30.359089 	 38.905892 	 40.295859 	 C 	 1  ala 	 1.000000 
4218 	 C 	 29.591232 	 39.528748 	 40.146035 	 C 	 1  ala 	 1.000000 
4219 	 C 	 29.528312 	 38.984993 	 39.309153 	 C 	 1  ala 	 1.000000 
4220 	 C 	 28.828169 	 38.903067 	 40.018440 	 C 	 1  ala 	 1.000000 
4221 	 C 	 28.576953 	 39.273148 	 40.912829 	 C 	 1  ala 	 1.000000 
4222 	 C 	 29.163166 	 40.003383 	 40.561957 	 C 	 1  ala 	 1.000000 
4223 	 C 	 28.604954 	 40.497839 	 41.228225 	 C 	 1  ala 	 1.000000 
4224 	 C 	 29.114905 	 41.038787 	 41.897049 	 C 	 1  ala 	 1.000000 
4225 	 C 	 29.782225 	 40.326786 	 42.115546 	 C 	 1  ala 	 1.000000 
4226 	 C 	 29.858049 	 41.304020 	 41.917393 	 C 	 1  ala 	 1.000000 
4227 	 C 	 29.871442 	 40.707540 	 42.719909 	 C 	 1  ala 	 1.000000 
4228 	 C 	 29.673526 	 41.601859 	 42.318632 	 C 	 1  ala 	 1.000000 
4229 	 C 	 29.611202 	 41.568802 	 41.321123 	 C 	 1  ala 	 1.000000 
4230 	 C 	 28.780296 	 41.583160 	 41.877350 	 C 	 1  ala 	 1.000000 
4231 	 C 	 29.156596 	 42.344821 	 42.404864 	 C 	 1  ala 	 1.000000 
4232 	 C 	 29.143261 	 41.904979 	 41.506888 	 C 	 1  ala 	 1.000000 
4233 	 C 	 29.197007 	 41.459450 	 40.613236 	 C 	 1  ala 	 1.000000 
4234 	 C 	 28.687385 	 42.302567 	 40.784809 	 C 	 1  ala 	 1.000000 
4235 	 C 	 28.004951 	 41.620689 	 41.048108 	 C 	 1  ala 	 1.000000 
4236 	 C 	 28.247010 	 42.390842 	 40.457962 	 C 	 1  ala 	 1.000000 
4237 	 C 	 27.491522 	 41.809256 	 40.759617 	 C 	 1  ala 	 1.000000 
4238 	 C 	 27.923084 	 42.705561 	 40.861554 	 C 	 1  ala 	 1.000000 
4239 	 C 	 28.776384 	 42.839509 	 41.365476 	 C 	 1  ala 	 1.000000 
4240 	 C 	 28.016829 	 42.327201 	 40.964705 	 C 	 1  ala 	 1.000000 
4241 	 C 	 28.116097 	 42.385316 	 41.958068 	 C 	 1  ala 	 1.000000 
4242 	 C 	 27.345734 	 42.482831 	 41.327964 	 C 	 1  ala 	 1.000000 
4243 	 C 	 27.519135 	 41.595774 	 40.900106 	 C 	 1  ala 	 1.000000 
4244 	 C 	 27.955539 	 42.379030 	 40.457318 	 C 	 1  ala 	 1.000000 
4245 	 C 	 28.507979 	 43.200870 	 40.318074 	 C 	 1  ala 	 1.000000 
4246 	 C 	 29.175668 	 42.688573 	 40.858207 	 C 	 1  ala 	 1.000000 
4247 	 C 	 29.022058 	 42.669681 	 39.870256 	 C 	 1  ala 	 1.000000 
4248 	 C 	 28.303242 	 42.674839 	 39.175075 	 C 	 1  ala 	 1.000000 
4249 	 C 	 27.425451 	 42.221351 	 39.329448 	 C 	 1  ala 	 1.000000 
4250 	 C 	 26.446372 	 42.190874 	 39.530634 	 C 	 1  ala 	 1.000000 
4251 	 C 	 26.042844 	 41.936795 	 38.651652 	 C 	 1  ala 	 1.000000 
4252 	 C 	 25.703999 	 42.791842 	 39.044181 	 C 	 1  ala 	 1.000000 
4253 	 C 	 25.781632 	 43.691809 	 39.473171 	 C 	 1  ala 	 1.000000 
4254 	 C 	 25.709994 	 43.138945 	 40.303358 	 C 	 1  ala 	 1.000000 
4255 	 C 	 24.943897 	 43.218963 	 40.941081 	 C 	 1  ala 	 1.000000 
4256 	 C 	 24.682195 	 42.878328 	 40.038042 	 C 	 1  ala 	 1.000000 
4257 	 C 	 25.074301 	 42.284066 	 40.740256 	 C 	 1  ala 	 1.000000 
4258 	 C 	 25.693052 	 42.503757 	 39.986013 	 C 	 1  ala 	 1.000000 
4259 	 C 	 26.501668 	 42.120310 	 39.539798 	 C 	 1  ala 	 1.000000 
4260 	 C 	 27.215433 	 42.820111 	 39.568416 	 C 	 1  ala 	 1.000000 
4261 	 C 	 27.949031 	 42.332628 	 39.094925 	 C 	 1  ala 	 1.000000 
4262 	 C 	 28.932185 	 42.207989 	 39.228614 	 C 	 1  ala 	 1.000000 
4263 	 C 	 29.198107 	 42.123199 	 38.268355 	 C 	 1  ala 	 1.000000 
4264 	 C 	 29.252249 	 43.017736 	 37.824652 	 C 	 1  ala 	 1.000000 
4265 	 C 	 30.179385 	 42.643593 	 37.845551 	 C 	 1  ala 	 1.000000 
4266 	 C 	 29.630938 	 42.996169 	 38.603770 	 C 	 1  ala 	 1.000000 
4267 	 C 	 30.565697 	 43.081902 	 38.258987 	 C 	 1  ala 	 1.000000 
4268 	 C 	 29.682441 	 43.073071 	 38.727794 	 C 	 1  ala 	 1.000000 
4269 	 C 	 30.277837 	 43.304790 	 37.958503 	 C 	 1  ala 	 1.000000 
4270 	 C 	 30.206130 	 42.596833 	 37.255897 	 C 	 1  ala 	 1.000000 
4271 	 C 	 30.227439 	 42.651551 	 36.257622 	 C 	 1  ala 	 1.000000 
4272 	 C 	 30.547633 	 41.707498 	 36.178630 	 C 	 1  ala 	 1.000000 
4273 	 C 	 29.715033 	 42.189052 	 36.452278 	 C 	 1  ala 	 1.000000 
4274 	 C 	 29.062357 	 41.725491 	 35.853008 	 C 	 1  ala 	 1.000000 
4275 	 C 	 29.757173 	 41.482132 	 35.176245 	 C 	 1  ala 	 1.000000 
4276 	 C 	 30.011490 	 41.835434 	 36.076524 	 C 	 1  ala 	 1.000000 
4277 	 C 	 29.470073 	 41.087740 	 36.460997 	 C 	 1  ala 	 1.000000 
4278 	 C 	 30.142541 	 41.786095 	 36.215872 	 C 	 1  ala 	 1.000000 
4279 	 C 	 30.583262 	 42.663693 	 36.404520 	 C 	 1  ala 	 1.000000 
4280 	 C 	 30.851386 	 42.887642 	 37.341513 	 C 	 1  ala 	 1.000000 
4281 	 C 	 30.042728 	 43.458793 	 37.200594 	 C 	 1  ala 	 1.000000 
4282 	 C 	 30.019201 	 43.676561 	 36.224877 	 C 	 1  ala 	 1.000000 
4283 	 C 	 30.072635 	 43.506341 	 37.208833 	 C 	 1  ala 	 1.000000 
4284 	 C 	 30.313072 	 42.564501 	 36.974041 	 C 	 1  ala 	 1.000000 
4285 	 C 	 30.138975 	 42.506371 	 37.957052 	 C 	 1  ala 	 1.000000 
4286 	 C 	 30.839055 	 43.066849 	 38.399489 	 C 	 1  ala 	 1.000000 
4287 	 C 	 30.522160 	 43.835166 	 37.843372 	 C 	 1  ala 	 1.000000 
4288 	 C 	 31.404496 	 43.367615 	 37.897041 	 C 	 1  ala 	 1.000000 
4289 	 C 	 32.234799 	 43.006192 	 38.321269 	 C 	 1  ala 	 1.000000 
4290 	 C 	 31.903076 	 42.470362 	 37.544838 	 C 	 1  ala 	 1.000000 
4291 	 C 	 32.817483 	 42.480457 	 37.140168 	 C 	 1  ala 	 1.000000 
4292 	 C 	 33.188232 	 43.147257 	 36.493699 	 C 	 1  ala 	 1.000000 
4293 	 C 	 33.358703 	 43.125099 	 35.508585 	 C 	 1  ala 	 1.000000 
4294 	 C 	 32.419139 	 43.466355 	 35.480961 	 C 	 1  ala 	 1.000000 
4295 	 C 	 32.097221 	 42.584811 	 35.135635 	 C 	 1  ala 	 1.000000 
4296 	 C 	 32.458900 	 41.840647 	 35.697247 	 C 	 1  ala 	 1.000000 
4297 	 C 	 33.151620 	 41.137650 	 35.536202 	 C 	 1  ala 	 1.000000 
4298 	 C 	 32.987167 	 40.455272 	 34.823942 	 C 	 1  ala 	 1.000000 
4299 	 C 	 32.043967 	 40.285112 	 35.109282 	 C 	 1  ala 	 1.000000 
4300 	 C 	 32.979767 	 39.946647 	 35.207863 	 C 	 1  ala 	 1.000000 
4301 	 C 	 33.868427 	 40.372919 	 35.376903 	 C 	 1  ala 	 1.000000 
4302 	 C 	 33.789913 	 39.418846 	 35.666006 	 C 	 1  ala 	 1.000000 
4303 	 C 	 34.456103 	 38.974625 	 35.066958 	 C 	 1  ala 	 1.000000 
4304 	 C 	 34.561814 	 39.475401 	 35.926056 	 C 	 1  ala 	 1.000000 
4305 	 C 	 35.232417 	 39.948206 	 36.497674 	 C 	 1  ala 	 1.000000 
4306 	 C 	 34.611495 	 40.195181 	 37.241622 	 C 	 1  ala 	 1.000000 
4307 	 C 	 34.507941 	 40.873781 	 37.968794 	 C 	 1  ala 	 1.000000 
4308 	 C 	 33.671995 	 41.422590 	 37.966754 	 C 	 1  ala 	 1.000000 
4309 	 C 	 33.244291 	 41.819775 	 37.154773 	 C 	 1  ala 	 1.000000 
4310 	 C 	 33.789693 	 41.025203 	 36.887957 	 C 	 1  ala 	 1.000000 
4311 	 C 	 34.629886 	 41.499253 	 36.624608 	 C 	 1  ala 	 1.000000 
4312 	 C 	 34.553165 	 40.979536 	 35.773721 	 C 	 1  ala 	 1.000000 
4313 	 C 	 34.958302 	 41.109849 	 34.868800 	 C 	 1  ala 	 1.000000 
4314 	 C 	 35.379824 	 40.940032 	 35.759575 	 C 	 1  ala 	 1.000000 
4315 	 C 	 36.041462 	 40.214875 	 35.950317 	 C 	 1  ala 	 1.000000 
4316 	 C 	 35.566430 	 39.877030 	 35.137787 	 C 	 1  ala 	 1.000000 
4317 	 C 	 35.383096 	 39.716746 	 36.107683 	 C 	 1  ala 	 1.000000 
4318 	 C 	 35.768274 	 40.639072 	 36.138543 	 C 	 1  ala 	 1.000000 
4319 	 C 	 35.748647 	 41.097377 	 35.249965 	 C 	 1  ala 	 1.000000 
4320 	 C 	 35.359269 	 40.381610 	 35.829673 	 C 	 1  ala 	 1.000000 
4321 	 C 	 35.973011 	 39.825066 	 35.269691 	 C 	 1  ala 	 1.000000 
4322 	 C 	 35.033327 	 40.113321 	 35.453822 	 C 	 1  ala 	 1.000000 
4323 	 C 	 35.096035 	 39.607577 	 34.593421 	 C 	 1  ala 	 1.000000 
4324 	 C 	 35.226045 	 40.046414 	 33.704309 	 C 	 1  ala 	 1.000000 
4325 	 C 	 35.203741 	 39.757138 	 34.661295 	 C 	 1  ala 	 1.000000 
4326 	 C 	 35.144717 	 39.548620 	 35.637531 	 C 	 1  ala 	 1.000000 
4327 	 C 	 34.177425 	 39.319573 	 35.746540 	 C 	 1  ala 	 1.000000 
4328 	 C 	 33.811918 	 40.220663 	 35.979864 	 C 	 1  ala 	 1.000000 
4329 	 C 	 33.115493 	 40.827073 	 36.363609 	 C 	 1  ala 	 1.000000 
4330 	 C 	 32.605444 	 39.973987 	 36.253632 	 C 	 1  ala 	 1.000000 
4331 	 C 	 32.094827 	 39.939574 	 37.112751 	 C 	 1  ala 	 1.000000 
4332 	 C 	 31.507832 	 40.745922 	 37.040362 	 C 	 1  ala 	 1.000000 
4333 	 C 	 31.118301 	 41.139335 	 37.873124 	 C 	 1  ala 	 1.000000 
4334 	 C 	 31.271276 	 40.728184 	 36.974484 	 C 	 1  ala 	 1.000000 
4335 	 C 	 31.996965 	 40.995398 	 37.608497 	 C 	 1  ala 	 1.000000 
4336 	 C 	 32.087958 	 41.985159 	 37.718462 	 C 	 1  ala 	 1.000000 
4337 	 C 	 31.154711 	 42.163147 	 38.030506 	 C 	 1  ala 	 1.000000 
4338 	 C 	 31.008963 	 42.819041 	 38.771155 	 C 	 1  ala 	 1.000000 
4339 	 C 	 31.013215 	 43.652011 	 39.324456 	 C 	 1  ala 	 1.000000 
4340 	 C 	 31.638769 	 42.872759 	 39.362509 	 C 	 1  ala 	 1.000000 
4341 	 C 	 31.096762 	 42.654388 	 40.174015 	 C 	 1  ala 	 1.000000 
4342 	 C 	 30.618504 	 42.076232 	 40.835078 	 C 	 1  ala 	 1.000000 
4343 	 C 	 30.585946 	 41.123964 	 41.138601 	 C 	 1  ala 	 1.000000 
4344 	 C 	 31.492906 	 41.077774 	 40.719924 	 C 	 1  ala 	 1.000000 
4345 	 C 	 31.275572 	 40.104910 	 40.640536 	 C 	 1  ala 	 1.000000 
4346 	 C 	 30.405898 	 39.685485 	 40.900822 	 C 	 1  ala 	 1.000000 
4347 	 C 	 30.070376 	 38.955074 	 40.305905 	 C 	 1  ala 	 1.000000 
4348 	 C 	 29.684290 	 38.064748 	 40.547271 	 C 	 1  ala 	 1.000000 
4349 	 C 	 29.520135 	 37.154102 	 40.168092 	 C 	 1  ala 	 1.000000 
4350 	 C 	 30.387393 	 37.469694 	 40.553145 	 C 	 1  ala 	 1.000000 
4351 	 C 	 31.041014 	 37.649409 	 41.288320 	 C 	 1  ala 	 1.000000 
4352 	 C 	 30.597029 	 38.464519 	 40.916200 	 C 	 1  ala 	 1.000000 
4353 	 C 	 31.390127 	 37.939736 	 40.607009 	 C 	 1  ala 	 1.000000 
4354 	 C 	 30.863409 	 37.624527 	 39.817571 	 C 	 1  ala 	 1.000000 
4355 	 C 	 30.573920 	 38.524581 	 40.143300 	 C 	 1  ala 	 1.000000 
4356 	 C 	 30.500099 	 38.950698 	 39.241649 	 C 	 1  ala 	 1.000000 
4357 	 C 	 31.271022 	 39.241379 	 39.808379 	 C 	 1  ala 	 1.000000 
4358 	 C 	 31.492167 	 39.529002 	 40.740241 	 C 	 1  ala 	 1.000000 
4359 	 C 	 32.487154 	 39.608693 	 40.679833 	 C 	 1  ala 	 1.000000 
4360 	 C 	 31.889275 	 39.674235 	 41.478735 	 C 	 1  ala 	 1.000000 
4361 	 C 	 30.988186 	 39.983504 	 41.174776 	 C 	 1  ala 	 1.000000 
4362 	 C 	 30.817299 	 40.831526 	 41.676430 	 C 	 1  ala 	 1.000000 
4363 	 C 	 31.600367 	 40.274415 	 41.952893 	 C 	 1  ala 	 1.000000 
4364 	 C 	 32.165605 	 40.558452 	 41.178407 	 C 	 1  ala 	 1.000000 
4365 	 C 	 32.770586 	 40.087781 	 41.820642 	 C 	 1  ala 	 1.000000 
4366 	 C 	 33.509231 	 40.518775 	 41.302330 	 C 	 1  ala 	 1.000000 
4367 	 C 	 34.047467 	 39.830946 	 40.815304 	 C 	 1  ala 	 1.000000 
4368 	 C 	 33.820854 	 39.765427 	 39.843525 	 C 	 1  ala 	 1.000000 
4369 	 C 	 34.292715 	 39.005879 	 39.395828 	 C 	 1  ala 	 1.000000 
4370 	 C 	 34.087483 	 38.658788 	 38.480728 	 C 	 1  ala 	 1.000000 
4371 	 C 	 34.388254 	 39.265148 	 39.216841 	 C 	 1  ala 	 1.000000 
4372 	 C 	 34.196785 	 39.223488 	 40.197455 	 C 	 1  ala 	 1.000000 
4373 	 C 	 34.419736 	 38.910589 	 41.120703 	 C 	 1  ala 	 1.000000 
4374 	 C 	 35.172436 	 38.452354 	 41.593422 	 C 	 1  ala 	 1.000000 
4375 	 C 	 35.954708 	 38.186939 	 41.029856 	 C 	 1  ala 	 1.000000 
4376 	 C 	 35.429264 	 38.131597 	 41.878882 	 C 	 1  ala 	 1.000000 
4377 	 C 	 34.591392 	 38.471086 	 42.306337 	 C 	 1  ala 	 1.000000 
4378 	 C 	 33.605795 	 38.637670 	 42.277212 	 C 	 1  ala 	 1.000000 
4379 	 C 	 33.066382 	 38.107380 	 41.623127 	 C 	 1  ala 	 1.000000 
4380 	 C 	 33.894860 	 37.547737 	 41.602543 	 C 	 1  ala 	 1.000000 
4381 	 C 	 34.087371 	 36.574825 	 41.730535 	 C 	 1  ala 	 1.000000 
4382 	 C 	 34.364770 	 37.284472 	 42.378185 	 C 	 1  ala 	 1.000000 
4383 	 C 	 34.127876 	 37.311668 	 41.407031 	 C 	 1  ala 	 1.000000 
4384 	 C 	 33.752382 	 37.689412 	 40.560677 	 C 	 1  ala 	 1.000000 
4385 	 C 	 33.254356 	 38.156732 	 41.291144 	 C 	 1  ala 	 1.000000 
4386 	 C 	 33.831943 	 38.948770 	 41.488805 	 C 	 1  ala 	 1.000000 
4387 	 C 	 33.379347 	 39.839064 	 41.438479 	 C 	 1  ala 	 1.000000 
4388 	 C 	 33.074252 	 39.903908 	 40.488367 	 C 	 1  ala 	 1.000000 
4389 	 C 	 33.868684 	 40.509476 	 40.534908 	 C 	 1  ala 	 1.000000 
4390 	 C 	 33.867033 	 40.701732 	 41.516251 	 C 	 1  ala 	 1.000000 
4391 	 C 	 33.116625 	 40.880982 	 42.152457 	 C 	 1  ala 	 1.000000 
4392 	 C 	 33.365383 	 41.168675 	 43.077309 	 C 	 1  ala 	 1.000000 
4393 	 C 	 32.817884 	 40.339882 	 42.961779 	 C 	 1  ala 	 1.000000 
4394 	 C 	 32.221084 	 41.118642 	 42.768486 	 C 	 1  ala 	 1.000000 
4395 	 C 	 32.587096 	 42.019996 	 42.999994 	 C 	 1  ala 	 1.000000 
4396 	 C 	 33.410078 	 42.500312 	 42.696684 	 C 	 1  ala 	 1.000000 
4397 	 C 	 33.413675 	 42.614785 	 43.690103 	 C 	 1  ala 	 1.000000 
4398 	 C 	 34.120118 	 42.292736 	 43.059847 	 C 	 1  ala 	 1.000000 
4399 	 C 	 33.308257 	 42.652958 	 42.600368 	 C 	 1  ala 	 1.000000 
4400 	 C 	 33.262904 	 43.152501 	 43.465469 	 C 	 1  ala 	 1.000000 
4401 	 C 	 34.062172 	 42.797110 	 42.980837 	 C 	 1  ala 	 1.000000 
4402 	 C 	 34.844715 	 42.682605 	 42.368861 	 C 	 1  ala 	 1.000000 
4403 	 C 	 34.150248 	 43.259220 	 41.938475 	 C 	 1  ala 	 1.000000 
4404 	 C 	 34.475204 	 42.421674 	 41.499249 	 C 	 1  ala 	 1.000000 
4405 	 C 	 34.984035 	 41.690001 	 41.045656 	 C 	 1  ala 	 1.000000 
4406 	 C 	 35.390385 	 41.275238 	 41.859813 	 C 	 1  ala 	 1.000000 
4407 	 C 	 34.581899 	 41.818987 	 42.084952 	 C 	 1  ala 	 1.000000 
4408 	 C 	 34.409102 	 42.426061 	 41.309322 	 C 	 1  ala 	 1.000000 
4409 	 C 	 34.870383 	 42.467666 	 42.195600 	 C 	 1  ala 	 1.000000 
4410 	 C 	 34.688725 	 41.645428 	 41.656225 	 C 	 1  ala 	 1.000000 
4411 	 C 	 35.276827 	 41.369218 	 40.896064 	 C 	 1  ala 	 1.000000 
4412 	 C 	 34.491000 	 41.672231 	 41.435192 	 C 	 1  ala 	 1.000000 
4413 	 C 	 35.146430 	 41.104529 	 41.933315 	 C 	 1  ala 	 1.000000 
4414 	 C 	 34.190329 	 41.049313 	 41.645528 	 C 	 1  ala 	 1.000000 
4415 	 C 	 33.202659 	 41.081771 	 41.798680 	 C 	 1  ala 	 1.000000 
4416 	 C 	 32.806471 	 41.969889 	 42.031664 	 C 	 1  ala 	 1.000000 
4417 	 C 	 33.072889 	 41.714382 	 42.961039 	 C 	 1  ala 	 1.000000 
4418 	 C 	 33.076638 	 41.038029 	 43.697607 	 C 	 1  ala 	 1.000000 
4419 	 C 	 32.687544 	 40.269561 	 44.205606 	 C 	 1  ala 	 1.000000 
4420 	 C 	 32.577039 	 41.260231 	 44.285373 	 C 	 1  ala 	 1.000000 
4421 	 C 	 33.469999 	 41.019018 	 43.905323 	 C 	 1  ala 	 1.000000 
4422 	 C 	 32.556352 	 40.641570 	 43.754388 	 C 	 1  ala 	 1.000000 
4423 	 C 	 33.422514 	 40.308494 	 43.381798 	 C 	 1  ala 	 1.000000 
4424 	 C 	 32.828163 	 40.729212 	 42.696420 	 C 	 1  ala 	 1.000000 
4425 	 C 	 32.756784 	 39.736496 	 42.599362 	 C 	 1  ala 	 1.000000 
4426 	 C 	 32.746064 	 38.757625 	 42.803556 	 C 	 1  ala 	 1.000000 
4427 	 C 	 31.805487 	 38.487812 	 42.597365 	 C 	 1  ala 	 1.000000 
4428 	 C 	 31.204474 	 38.481085 	 43.396575 	 C 	 1  ala 	 1.000000 
4429 	 C 	 30.791386 	 39.010029 	 44.137910 	 C 	 1  ala 	 1.000000 
4430 	 C 	 31.579732 	 38.954981 	 44.750675 	 C 	 1  ala 	 1.000000 
4431 	 C 	 31.675279 	 39.947104 	 44.831684 	 C 	 1  ala 	 1.000000 
4432 	 C 	 31.509293 	 38.983478 	 44.622221 	 C 	 1  ala 	 1.000000 
4433 	 C 	 31.932891 	 38.088728 	 44.480847 	 C 	 1  ala 	 1.000000 
4434 	 C 	 31.675820 	 38.932812 	 44.010276 	 C 	 1  ala 	 1.000000 
4435 	 C 	 31.945679 	 39.893161 	 43.940233 	 C 	 1  ala 	 1.000000 
4436 	 C 	 32.351182 	 39.003805 	 43.729011 	 C 	 1  ala 	 1.000000 
4437 	 C 	 32.030643 	 39.939968 	 43.873419 	 C 	 1  ala 	 1.000000 
4438 	 C 	 32.933127 	 39.515709 	 43.947758 	 C 	 1  ala 	 1.000000 
4439 	 C 	 33.255114 	 39.064426 	 43.115491 	 C 	 1  ala 	 1.000000 
4440 	 C 	 33.175397 	 39.946587 	 42.651341 	 C 	 1  ala 	 1.000000 
4441 	 C 	 33.122173 	 39.689569 	 43.616280 	 C 	 1  ala 	 1.000000 
4442 	 C 	 32.384253 	 39.676720 	 44.291046 	 C 	 1  ala 	 1.000000 
4443 	 C 	 31.789159 	 39.701294 	 45.094327 	 C 	 1  ala 	 1.000000 
4444 	 C 	 30.905463 	 39.345365 	 44.790361 	 C 	 1  ala 	 1.000000 
4445 	 C 	 30.266622 	 38.754143 	 44.298081 	 C 	 1  ala 	 1.000000 
4446 	 C 	 29.855520 	 38.287187 	 43.515172 	 C 	 1  ala 	 1.000000 
4447 	 C 	 29.311111 	 37.841511 	 44.225799 	 C 	 1  ala 	 1.000000 
4448 	 C 	 28.488907 	 37.484536 	 44.669138 	 C 	 1  ala 	 1.000000 
4449 	 C 	 27.802632 	 38.165298 	 44.413035 	 C 	 1  ala 	 1.000000 
4450 	 O 	 27.988057 	 37.539085 	 45.170317 	 O 	 1  ala 	 1.000000 
4451 	 C 	 28.884228 	 37.146366 	 44.963801 	 C 	 1  ala 	 1.000000 
4452 	 C 	 29.512056 	 37.777298 	 45.419603 	 C 	 1  ala 	 1.000000 
4453 	 C 	 28.530047 	 37.932673 	 45.526915 	 C 	 1  ala 	 1.000000 
4454 	 C 	 27.788665 	 37.713613 	 46.161237 	 C 	 1  ala 	 1.000000 
4455 	 C 	 27.024943 	 38.358963 	 46.145337 	 C 	 1  ala 	 1.000000 
4456 	 C 	 27.863290 	 37.824585 	 46.037567 	 C 	 1  ala 	 1.000000 
4457 	 C 	 28.686123 	 37.528073 	 46.522362 	 C 	 1  ala 	 1.000000 
4458 	 C 	 28.344879 	 38.165413 	 45.831457 	 C 	 1  ala 	 1.000000 
4459 	 C 	 29.049750 	 38.151549 	 46.540657 	 C 	 1  ala 	 1.000000 
4460 	 C 	 29.154378 	 38.840510 	 45.823450 	 C 	 1  ala 	 1.000000 
4461 	 C 	 28.711852 	 38.081968 	 45.345136 	 C 	 1  ala 	 1.000000 
4462 	 C 	 28.200269 	 38.729041 	 44.779823 	 C 	 1  ala 	 1.000000 
4463 	 C 	 28.141433 	 38.348153 	 45.702570 	 C 	 1  ala 	 1.000000 
4464 	 C 	 27.230671 	 37.964788 	 45.549127 	 C 	 1  ala 	 1.000000 
4465 	 C 	 28.220141 	 37.949920 	 45.405155 	 C 	 1  ala 	 1.000000 
4466 	 C 	 27.278038 	 38.200215 	 45.628299 	 C 	 1  ala 	 1.000000 
4467 	 C 	 27.327532 	 39.004672 	 46.220244 	 C 	 1  ala 	 1.000000 
4468 	 C 	 26.470520 	 38.593360 	 46.530651 	 C 	 1  ala 	 1.000000 
4469 	 C 	 25.530534 	 38.355658 	 46.775444 	 C 	 1  ala 	 1.000000 
4470 	 C 	 24.599700 	 38.627573 	 46.531291 	 C 	 1  ala 	 1.000000 
4471 	 C 	 24.592024 	 39.005283 	 47.457183 	 C 	 1  ala 	 1.000000 
4472 	 C 	 24.579293 	 39.728683 	 46.766871 	 C 	 1  ala 	 1.000000 
4473 	 C 	 24.910374 	 40.448951 	 46.157282 	 C 	 1  ala 	 1.000000 
4474 	 C 	 25.529368 	 39.737258 	 46.489457 	 C 	 1  ala 	 1.000000 
4475 	 C 	 25.563428 	 39.063285 	 47.227427 	 C 	 1  ala 	 1.000000 
4476 	 C 	 25.564881 	 39.435945 	 46.299460 	 C 	 1  ala 	 1.000000 
4477 	 C 	 25.787454 	 38.464965 	 46.386982 	 C 	 1  ala 	 1.000000 
4478 	 C 	 26.187428 	 39.211896 	 46.918127 	 C 	 1  ala 	 1.000000 
4479 	 C 	 27.156873 	 39.456519 	 46.936415 	 C 	 1  ala 	 1.000000 
4480 	 C 	 27.558600 	 38.580412 	 46.669858 	 C 	 1  ala 	 1.000000 
4481 	 C 	 26.950430 	 39.373142 	 46.711202 	 C 	 1  ala 	 1.000000 
4482 	 C 	 27.801818 	 39.606800 	 47.180821 	 C 	 1  ala 	 1.000000 
4483 	 C 	 27.512645 	 40.555799 	 47.306440 	 C 	 1  ala 	 1.000000 
4484 	 C 	 27.279663 	 41.179456 	 48.052611 	 C 	 1  ala 	 1.000000 
4485 	 C 	 26.994052 	 41.893944 	 48.691308 	 C 	 1  ala 	 1.000000 
4486 	 C 	 27.492769 	 41.410587 	 47.971830 	 C 	 1  ala 	 1.000000 
4487 	 C 	 27.545498 	 41.741843 	 48.913897 	 C 	 1  ala 	 1.000000 
4488 	 C 	 27.909091 	 41.986232 	 48.014967 	 C 	 1  ala 	 1.000000 
4489 	 C 	 27.850445 	 41.443889 	 47.176859 	 C 	 1  ala 	 1.000000 
4490 	 C 	 27.429057 	 40.749518 	 46.593522 	 C 	 1  ala 	 1.000000 
4491 	 C 	 26.782701 	 41.346733 	 46.118594 	 C 	 1  ala 	 1.000000 
4492 	 C 	 26.796482 	 40.611734 	 45.440665 	 C 	 1  ala 	 1.000000 
4493 	 C 	 26.536720 	 40.201766 	 46.314994 	 C 	 1  ala 	 1.000000 
4494 	 C 	 26.482486 	 40.512468 	 45.366035 	 C 	 1  ala 	 1.000000 
4495 	 C 	 26.947076 	 41.341218 	 45.054058 	 C 	 1  ala 	 1.000000 
4496 	 C 	 27.443261 	 40.473148 	 45.070064 	 C 	 1  ala 	 1.000000 
4497 	 C 	 28.402954 	 40.656596 	 44.857143 	 C 	 1  ala 	 1.000000 
4498 	 C 	 28.967865 	 41.388018 	 45.239108 	 C 	 1  ala 	 1.000000 
4499 	 C 	 28.048173 	 41.427014 	 45.629806 	 C 	 1  ala 	 1.000000 
4500 	 C 	 27.928491 	 40.712229 	 44.940779 	 C 	 1  ala 	 1.000000 
4501 	 C 	 27.966122 	 41.468298 	 44.287369 	 C 	 1  ala 	 1.000000 
4502 	 C 	 27.265781 	 41.185801 	 43.631840 	 C 	 1  ala 	 1.000000 
4503 	 C 	 26.778074 	 42.023054 	 43.879123 	 C 	 1  ala 	 1.000000 
4504 	 C 	 26.631851 	 42.057471 	 44.867776 	 C 	 1  ala 	 1.000000 
4505 	 C 	 25.850382 	 42.159318 	 45.483352 	 C 	 1  ala 	 1.000000 
4506 	 C 	 25.285380 	 42.141919 	 44.658447 	 C 	 1  ala 	 1.000000 
4507 	 C 	 25.354426 	 41.516245 	 45.435469 	 C 	 1  ala 	 1.000000 
4508 	 C 	 24.610527 	 41.961032 	 44.936692 	 C 	 1  ala 	 1.000000 
4509 	 C 	 24.679982 	 42.752030 	 44.328828 	 C 	 1  ala 	 1.000000 
4510 	 C 	 24.814385 	 43.722594 	 44.128977 	 C 	 1  ala 	 1.000000 
4511 	 C 	 24.718911 	 43.412653 	 43.183027 	 C 	 1  ala 	 1.000000 
4512 	 C 	 24.975819 	 43.420060 	 42.216620 	 C 	 1  ala 	 1.000000 
4513 	 C 	 24.224847 	 43.364340 	 41.558641 	 C 	 1  ala 	 1.000000 
4514 	 C 	 25.023118 	 42.970999 	 41.102521 	 C 	 1  ala 	 1.000000 
4515 	 C 	 25.629708 	 42.242263 	 40.784727 	 C 	 1  ala 	 1.000000 
4516 	 C 	 25.297629 	 42.616066 	 41.650749 	 C 	 1  ala 	 1.000000 
4517 	 C 	 24.830996 	 42.632603 	 40.766453 	 C 	 1  ala 	 1.000000 
4518 	 C 	 24.435497 	 43.371144 	 41.312473 	 C 	 1  ala 	 1.000000 
4519 	 C 	 24.254799 	 43.327883 	 42.295060 	 C 	 1  ala 	 1.000000 
4520 	 C 	 24.589220 	 42.393812 	 42.169862 	 C 	 1  ala 	 1.000000 
4521 	 C 	 24.694211 	 41.506199 	 42.618326 	 C 	 1  ala 	 1.000000 
4522 	 C 	 25.571491 	 41.092024 	 42.860891 	 C 	 1  ala 	 1.000000 
4523 	 C 	 25.645413 	 40.412874 	 43.591159 	 C 	 1  ala 	 1.000000 
4524 	 C 	 25.951892 	 39.463049 	 43.653641 	 C 	 1  ala 	 1.000000 
4525 	 C 	 25.154720 	 40.021236 	 43.883737 	 C 	 1  ala 	 1.000000 
4526 	 C 	 25.823367 	 39.292482 	 44.031485 	 C 	 1  ala 	 1.000000 
4527 	 C 	 25.288808 	 39.712497 	 44.764857 	 C 	 1  ala 	 1.000000 
4528 	 C 	 25.170378 	 39.123220 	 43.965653 	 C 	 1  ala 	 1.000000 
4529 	 C 	 26.081598 	 39.211006 	 44.368109 	 C 	 1  ala 	 1.000000 
4530 	 C 	 26.250345 	 40.114098 	 44.763012 	 C 	 1  ala 	 1.000000 
4531 	 C 	 25.572369 	 40.844608 	 44.844892 	 C 	 1  ala 	 1.000000 
4532 	 C 	 25.341388 	 40.386912 	 43.986311 	 C 	 1  ala 	 1.000000 
4533 	 C 	 25.646362 	 40.380823 	 44.938652 	 C 	 1  ala 	 1.000000 
4534 	 C 	 25.755967 	 39.487134 	 45.373745 	 C 	 1  ala 	 1.000000 
4535 	 C 	 25.308386 	 39.266250 	 46.240279 	 C 	 1  ala 	 1.000000 
4536 	 C 	 25.514025 	 39.701383 	 45.363711 	 C 	 1  ala 	 1.000000 
4537 	 C 	 25.691666 	 39.363283 	 46.287904 	 C 	 1  ala 	 1.000000 
4538 	 C 	 24.819877 	 38.881415 	 46.376150 	 C 	 1  ala 	 1.000000 
4539 	 C 	 24.585499 	 39.648981 	 45.779569 	 C 	 1  ala 	 1.000000 
4540 	 C 	 24.050995 	 39.099570 	 46.421794 	 C 	 1  ala 	 1.000000 
4541 	 C 	 23.808096 	 40.064171 	 46.319104 	 C 	 1  ala 	 1.000000 
4542 	 C 	 23.756790 	 39.084348 	 46.512274 	 C 	 1  ala 	 1.000000 
4543 	 C 	 24.435786 	 38.360684 	 46.635866 	 C 	 1  ala 	 1.000000 
4544 	 C 	 24.189662 	 39.293054 	 46.900649 	 C 	 1  ala 	 1.000000 
4545 	 C 	 23.369845 	 39.231723 	 47.469982 	 C 	 1  ala 	 1.000000 
4546 	 C 	 23.855058 	 39.140245 	 46.600384 	 C 	 1  ala 	 1.000000 
4547 	 C 	 24.239192 	 38.261927 	 46.884986 	 C 	 1  ala 	 1.000000 
4548 	 C 	 23.894899 	 38.470208 	 47.800454 	 C 	 1  ala 	 1.000000 
4549 	 C 	 23.942479 	 38.688646 	 46.825764 	 C 	 1  ala 	 1.000000 
4550 	 N 	 24.282519 	 39.620925 	 46.949168 	 N 	 1  ala 	 1.000000 
4551 	 C 	 24.155487 	 40.009946 	 46.036740 	 C 	 1  ala 	 1.000000 
4552 	 C 	 23.780963 	 40.339361 	 46.903468 	 C 	 1  ala 	 1.000000 
4553 	 C 	 24.399749 	 41.100529 	 47.097701 	 C 	 1  ala 	 1.000000 
4554 	 C 	 23.677475 	 40.446443 	 47.322407 	 C 	 1  ala 	 1.000000 
4555 	 C 	 23.753505 	 39.512945 	 47.672836 	 C 	 1  ala 	 1.000000 
4556 	 C 	 23.429548 	 39.869711 	 48.549060 	 C 	 1  ala 	 1.000000 
4557 	 C 	 24.320568 	 39.660690 	 48.146079 	 C 	 1  ala 	 1.000000 
4558 	 C 	 24.152698 	 40.544322 	 47.709028 	 C 	 1  ala 	 1.000000 
4559 	 C 	 23.476504 	 40.358916 	 46.996016 	 C 	 1  ala 	 1.000000 
4560 	 C 	 23.066324 	 39.857499 	 46.234220 	 C 	 1  ala 	 1.000000 
4561 	 C 	 24.025513 	 39.773206 	 45.964308 	 C 	 1  ala 	 1.000000 
4562 	 C 	 23.704620 	 40.480797 	 46.593865 	 C 	 1  ala 	 1.000000 
4563 	 C 	 24.663741 	 40.746084 	 46.692403 	 C 	 1  ala 	 1.000000 
4564 	 C 	 24.661088 	 40.279069 	 45.808158 	 C 	 1  ala 	 1.000000 
4565 	 C 	 25.450492 	 40.077447 	 46.387977 	 C 	 1  ala 	 1.000000 
4566 	 C 	 25.016834 	 39.202567 	 46.603674 	 C 	 1  ala 	 1.000000 
4567 	 C 	 25.494419 	 39.606510 	 45.823454 	 C 	 1  ala 	 1.000000 
4568 	 C 	 25.328591 	 40.485206 	 46.271109 	 C 	 1  ala 	 1.000000 
4569 	 C 	 25.751819 	 40.844905 	 45.439547 	 C 	 1  ala 	 1.000000 
4570 	 C 	 26.597804 	 40.619901 	 45.922955 	 C 	 1  ala 	 1.000000 
4571 	 C 	 26.618568 	 40.369836 	 46.890961 	 C 	 1  ala 	 1.000000 
4572 	 C 	 25.994009 	 40.963937 	 47.397884 	 C 	 1  ala 	 1.000000 
4573 	 C 	 25.472109 	 41.669846 	 47.876750 	 C 	 1  ala 	 1.000000 
4574 	 C 	 25.439969 	 40.900060 	 48.514242 	 C 	 1  ala 	 1.000000 
4575 	 C 	 26.064074 	 41.328798 	 49.167446 	 C 	 1  ala 	 1.000000 
4576 	 C 	 25.764770 	 40.379430 	 49.071960 	 C 	 1  ala 	 1.000000 
4577 	 C 	 25.269853 	 40.624897 	 48.238412 	 C 	 1  ala 	 1.000000 
4578 	 C 	 24.498569 	 41.205857 	 47.978401 	 C 	 1  ala 	 1.000000 
4579 	 C 	 25.183094 	 41.910271 	 48.166084 	 C 	 1  ala 	 1.000000 
4580 	 C 	 24.825687 	 42.070551 	 49.086177 	 C 	 1  ala 	 1.000000 
4581 	 C 	 24.164212 	 41.763030 	 48.402158 	 C 	 1  ala 	 1.000000 
4582 	 C 	 23.545298 	 42.113144 	 49.105270 	 C 	 1  ala 	 1.000000 
4583 	 C 	 23.700739 	 43.080466 	 49.305580 	 C 	 1  ala 	 1.000000 
4584 	 C 	 23.524581 	 42.269490 	 49.863510 	 C 	 1  ala 	 1.000000 
4585 	 C 	 24.087184 	 42.964956 	 50.310506 	 C 	 1  ala 	 1.000000 
4586 	 C 	 23.236434 	 42.550053 	 49.987892 	 C 	 1  ala 	 1.000000 
4587 	 C 	 24.182229 	 42.368378 	 50.257089 	 C 	 1  ala 	 1.000000 
4588 	 C 	 23.681830 	 42.023391 	 51.051183 	 C 	 1  ala 	 1.000000 
4589 	 C 	 23.385617 	 42.719288 	 50.396977 	 C 	 1  ala 	 1.000000 
4590 	 C 	 23.312560 	 41.967265 	 51.052053 	 C 	 1  ala 	 1.000000 
4591 	 C 	 22.413283 	 41.602835 	 51.293901 	 C 	 1  ala 	 1.000000 
4592 	 C 	 22.855635 	 42.481796 	 51.472092 	 C 	 1  ala 	 1.000000 
4593 	 C 	 22.288364 	 42.832127 	 50.726792 	 C 	 1  ala 	 1.000000 
4594 	 C 	 22.622749 	 41.999790 	 51.168835 	 C 	 1  ala 	 1.000000 
4595 	 C 	 22.153921 	 41.646329 	 50.359350 	 C 	 1  ala 	 1.000000 
4596 	 C 	 21.847237 	 42.468470 	 49.879736 	 C 	 1  ala 	 1.000000 
4597 	 C 	 20.946806 	 42.882809 	 50.012197 	 C 	 1  ala 	 1.000000 
4598 	 C 	 21.123614 	 42.156717 	 49.347722 	 C 	 1  ala 	 1.000000 
4599 	 C 	 21.205121 	 41.167927 	 49.222617 	 C 	 1  ala 	 1.000000 
4600 	 C 	 20.212232 	 41.214391 	 49.113019 	 C 	 1  ala 	 1.000000 
4601 	 C 	 20.905521 	 41.898691 	 48.887002 	 C 	 1  ala 	 1.000000 
4602 	 C 	 20.124979 	 42.517685 	 48.799829 	 C 	 1  ala 	 1.000000 
4603 	 C 	 20.242517 	 41.663189 	 49.305815 	 C 	 1  ala 	 1.000000 
4604 	 C 	 21.016930 	 42.208410 	 49.626780 	 C 	 1  ala 	 1.000000 
4605 	 C 	 20.685855 	 41.994260 	 50.545762 	 C 	 1  ala 	 1.000000 
4606 	 C 	 20.620620 	 42.717919 	 49.858695 	 C 	 1  ala 	 1.000000 
4607 	 C 	 20.507862 	 42.458744 	 48.899469 	 C 	 1  ala 	 1.000000 
4608 	 C 	 20.280951 	 43.431660 	 48.855349 	 C 	 1  ala 	 1.000000 
4609 	 C 	 19.905328 	 42.866526 	 48.120820 	 C 	 1  ala 	 1.000000 
4610 	 C 	 19.875908 	 43.074114 	 47.143047 	 C 	 1  ala 	 1.000000 
4611 	 C 	 19.075244 	 43.672198 	 47.107927 	 C 	 1  ala 	 1.000000 
4612 	 C 	 19.063609 	 42.857537 	 46.528106 	 C 	 1  ala 	 1.000000 
4613 	 C 	 19.439262 	 43.783923 	 46.554436 	 C 	 1  ala 	 1.000000 
4614 	 C 	 19.577992 	 42.850735 	 46.885967 	 C 	 1  ala 	 1.000000 
4615 	 C 	 19.556647 	 42.944594 	 47.881324 	 C 	 1  ala 	 1.000000 
4616 	 C 	 19.390351 	 43.648282 	 48.572098 	 C 	 1  ala 	 1.000000 
4617 	 C 	 20.316807 	 43.317887 	 48.391770 	 C 	 1  ala 	 1.000000 
4618 	 C 	 20.324048 	 42.599795 	 47.695860 	 C 	 1  ala 	 1.000000 
4619 	 C 	 19.664743 	 42.117478 	 47.119069 	 C 	 1  ala 	 1.000000 
4620 	 C 	 19.570982 	 42.654863 	 47.957177 	 C 	 1  ala 	 1.000000 
4621 	 C 	 19.363767 	 42.903478 	 47.010999 	 C 	 1  ala 	 1.000000 
4622 	 C 	 19.752316 	 42.850592 	 47.930908 	 C 	 1  ala 	 1.000000 
4623 	 C 	 20.419245 	 42.202832 	 47.562652 	 C 	 1  ala 	 1.000000 
4624 	 C 	 20.132495 	 42.578666 	 48.443857 	 C 	 1  ala 	 1.000000 
4625 	 C 	 20.063835 	 43.131404 	 47.613335 	 C 	 1  ala 	 1.000000 
4626 	 C 	 19.889442 	 42.148586 	 47.552869 	 C 	 1  ala 	 1.000000 
4627 	 C 	 20.089565 	 41.565480 	 48.340230 	 C 	 1  ala 	 1.000000 
4628 	 C 	 20.476836 	 42.427600 	 48.013474 	 C 	 1  ala 	 1.000000 
4629 	 C 	 19.506930 	 42.225142 	 48.148730 	 C 	 1  ala 	 1.000000 
4630 	 C 	 19.610985 	 43.155013 	 48.501594 	 C 	 1  ala 	 1.000000 
4631 	 C 	 18.848968 	 43.802044 	 48.527675 	 C 	 1  ala 	 1.000000 
4632 	 C 	 18.176816 	 43.070681 	 48.412265 	 C 	 1  ala 	 1.000000 
4633 	 C 	 17.402203 	 43.628302 	 48.113880 	 C 	 1  ala 	 1.000000 
4634 	 C 	 16.549682 	 43.713030 	 47.598100 	 C 	 1  ala 	 1.000000 
4635 	 C 	 16.283636 	 42.930879 	 48.161535 	 C 	 1  ala 	 1.000000 
4636 	 C 	 15.526207 	 42.444613 	 48.597248 	 C 	 1  ala 	 1.000000 
4637 	 C 	 14.686916 	 42.985559 	 48.542766 	 C 	 1  ala 	 1.000000 
4638 	 C 	 14.779067 	 42.520396 	 49.423182 	 C 	 1  ala 	 1.000000 
4639 	 C 	 15.126393 	 43.420106 	 49.158820 	 C 	 1  ala 	 1.000000 
4640 	 C 	 14.573788 	 44.029987 	 48.590777 	 C 	 1  ala 	 1.000000 
4641 	 C 	 13.992927 	 44.031987 	 47.776777 	 C 	 1  ala 	 1.000000 
4642 	 C 	 13.884542 	 43.410820 	 47.000631 	 C 	 1  ala 	 1.000000 
4643 	 C 	 13.045129 	 43.343136 	 47.539894 	 C 	 1  ala 	 1.000000 
4644 	 C 	 12.983900 	 44.208925 	 47.043246 	 C 	 1  ala 	 1.000000 
4645 	 C 	 13.002957 	 45.198906 	 46.903335 	 C 	 1  ala 	 1.000000 
4646 	 C 	 12.999033 	 45.201263 	 47.903325 	 C 	 1  ala 	 1.000000 
4647 	 C 	 13.736848 	 45.322681 	 47.239332 	 C 	 1  ala 	 1.000000 
4648 	 C 	 14.545171 	 45.062991 	 47.767702 	 C 	 1  ala 	 1.000000 
4649 	 C 	 13.985364 	 45.513189 	 47.072046 	 C 	 1  ala 	 1.000000 
4650 	 C 	 13.334249 	 46.270421 	 47.123513 	 C 	 1  ala 	 1.000000 
4651 	 C 	 13.690204 	 47.193482 	 47.269298 	 C 	 1  ala 	 1.000000 
4652 	 C 	 13.585504 	 46.839776 	 48.198776 	 C 	 1  ala 	 1.000000 
4653 	 C 	 13.211717 	 45.920039 	 48.078912 	 C 	 1  ala 	 1.000000 
4654 	 C 	 13.151422 	 46.789954 	 47.589410 	 C 	 1  ala 	 1.000000 
4655 	 C 	 14.119554 	 46.647470 	 47.383454 	 C 	 1  ala 	 1.000000 
4656 	 C 	 15.073871 	 46.802080 	 47.639139 	 C 	 1  ala 	 1.000000 
4657 	 C 	 15.451466 	 47.528396 	 47.064781 	 C 	 1  ala 	 1.000000 
4658 	 C 	 16.382765 	 47.889769 	 47.110500 	 C 	 1  ala 	 1.000000 
4659 	 C 	 16.367045 	 47.777358 	 48.104037 	 C 	 1  ala 	 1.000000 
4660 	 C 	 16.279951 	 48.083764 	 49.051945 	 C 	 1  ala 	 1.000000 
4661 	 C 	 16.718902 	 48.216897 	 49.940538 	 C 	 1  ala 	 1.000000 
4662 	 C 	 17.320592 	 47.720866 	 49.314502 	 C 	 1  ala 	 1.000000 
4663 	 C 	 16.932407 	 47.010822 	 48.727007 	 C 	 1  ala 	 1.000000 
4664 	 C 	 17.179818 	 47.959713 	 48.922952 	 C 	 1  ala 	 1.000000 
4665 	 C 	 17.050076 	 46.972191 	 48.833688 	 C 	 1  ala 	 1.000000 
4666 	 C 	 16.615850 	 47.701379 	 49.362585 	 C 	 1  ala 	 1.000000 
4667 	 C 	 15.769553 	 48.195727 	 49.164085 	 C 	 1  ala 	 1.000000 
4668 	 C 	 16.391787 	 47.413485 	 49.133691 	 C 	 1  ala 	 1.000000 
4669 	 C 	 15.523406 	 47.230419 	 48.672819 	 C 	 1  ala 	 1.000000 
4670 	 C 	 14.661684 	 46.726045 	 48.727952 	 C 	 1  ala 	 1.000000 
4671 	 C 	 14.280242 	 46.857369 	 49.642969 	 C 	 1  ala 	 1.000000 
4672 	 C 	 15.191715 	 46.730701 	 50.034342 	 C 	 1  ala 	 1.000000 
4673 	 C 	 16.172200 	 46.551425 	 50.115020 	 C 	 1  ala 	 1.000000 
4674 	 C 	 16.567181 	 45.774045 	 49.625459 	 C 	 1  ala 	 1.000000 
4675 	 C 	 16.498450 	 45.124391 	 50.382576 	 C 	 1  ala 	 1.000000 
4676 	 C 	 15.501607 	 45.118712 	 50.303374 	 C 	 1  ala 	 1.000000 
4677 	 C 	 14.610570 	 44.936458 	 50.719110 	 C 	 1  ala 	 1.000000 
4678 	 C 	 13.969388 	 45.536789 	 50.241106 	 C 	 1  ala 	 1.000000 
4679 	 C 	 13.243777 	 44.994000 	 49.818176 	 C 	 1  ala 	 1.000000 
4680 	 C 	 13.826718 	 45.790212 	 49.980124 	 C 	 1  ala 	 1.000000 
4681 	 C 	 14.066459 	 46.265812 	 50.826486 	 C 	 1  ala 	 1.000000 
4682 	 C 	 13.262148 	 45.808204 	 51.205536 	 C 	 1  ala 	 1.000000 
4683 	 C 	 12.688441 	 46.116629 	 50.446764 	 C 	 1  ala 	 1.000000 
4684 	 C 	 12.788152 	 45.159706 	 50.174079 	 C 	 1  ala 	 1.000000 
4685 	 C 	 12.010780 	 44.537823 	 50.079458 	 C 	 1  ala 	 1.000000 
4686 	 C 	 12.367428 	 44.690634 	 49.157801 	 C 	 1  ala 	 1.000000 
4687 	 C 	 12.960421 	 44.068036 	 49.668419 	 C 	 1  ala 	 1.000000 
4688 	 C 	 13.405570 	 44.251376 	 48.791933 	 C 	 1  ala 	 1.000000 
4689 	 C 	 12.807119 	 43.459518 	 48.913655 	 C 	 1  ala 	 1.000000 
4690 	 C 	 13.645854 	 44.002674 	 48.874869 	 C 	 1  ala 	 1.000000 
4691 	 C 	 14.336662 	 43.281157 	 48.827981 	 C 	 1  ala 	 1.000000 
4692 	 C 	 14.819346 	 42.797438 	 49.558071 	 C 	 1  ala 	 1.000000 
4693 	 C 	 15.490227 	 42.979572 	 48.839221 	 C 	 1  ala 	 1.000000 
4694 	 C 	 15.916733 	 42.413350 	 48.133895 	 C 	 1  ala 	 1.000000 
4695 	 C 	 16.155451 	 42.962359 	 47.332894 	 C 	 1  ala 	 1.000000 
4696 	 C 	 16.082325 	 43.913089 	 47.031622 	 C 	 1  ala 	 1.000000 
4697 	 C 	 15.165759 	 44.254813 	 46.823940 	 C 	 1  ala 	 1.000000 
4698 	 C 	 15.444162 	 45.108697 	 46.384197 	 C 	 1  ala 	 1.000000 
4699 	 C 	 15.521122 	 44.544550 	 47.206277 	 C 	 1  ala 	 1.000000 
4700 	 C 	 15.189607 	 44.463788 	 46.266291 	 C 	 1  ala 	 1.000000 
4701 	 C 	 15.948217 	 45.104265 	 46.385869 	 C 	 1  ala 	 1.000000 
4702 	 C 	 15.286513 	 45.638972 	 45.860287 	 C 	 1  ala 	 1.000000 
4703 	 C 	 15.383402 	 45.601774 	 44.865687 	 C 	 1  ala 	 1.000000 
4704 	 C 	 14.658628 	 45.069069 	 44.428734 	 C 	 1  ala 	 1.000000 
4705 	 C 	 13.667055 	 45.198549 	 44.424458 	 C 	 1  ala 	 1.000000 
4706 	 C 	 14.244326 	 44.822162 	 43.699826 	 C 	 1  ala 	 1.000000 
4707 	 C 	 14.490133 	 44.985108 	 42.744302 	 C 	 1  ala 	 1.000000 
4708 	 C 	 15.207427 	 44.816469 	 42.068247 	 C 	 1  ala 	 1.000000 
4709 	 C 	 15.218242 	 45.813167 	 41.987769 	 C 	 1  ala 	 1.000000 
4710 	 C 	 15.947803 	 46.418999 	 41.670423 	 C 	 1  ala 	 1.000000 
4711 	 C 	 16.609298 	 47.159117 	 41.791457 	 C 	 1  ala 	 1.000000 
4712 	 C 	 15.803986 	 46.700291 	 41.416023 	 C 	 1  ala 	 1.000000 
4713 	 C 	 16.255932 	 45.971238 	 41.930054 	 C 	 1  ala 	 1.000000 
4714 	 C 	 16.911688 	 46.476259 	 42.491247 	 C 	 1  ala 	 1.000000 
4715 	 C 	 16.442033 	 46.552189 	 43.370825 	 C 	 1  ala 	 1.000000 
4716 	 C 	 15.704037 	 46.456804 	 42.702795 	 C 	 1  ala 	 1.000000 
4717 	 C 	 15.695116 	 45.739412 	 43.399407 	 C 	 1  ala 	 1.000000 
4718 	 C 	 16.564750 	 45.248044 	 43.351505 	 C 	 1  ala 	 1.000000 
4719 	 C 	 17.466577 	 45.149948 	 43.772318 	 C 	 1  ala 	 1.000000 
4720 	 C 	 17.577565 	 45.931305 	 44.386455 	 C 	 1  ala 	 1.000000 
4721 	 C 	 18.371908 	 46.538396 	 44.365073 	 C 	 1  ala 	 1.000000 
4722 	 C 	 19.051837 	 45.835862 	 44.154971 	 C 	 1  ala 	 1.000000 
4723 	 C 	 18.432849 	 46.094993 	 44.896392 	 C 	 1  ala 	 1.000000 
4724 	 C 	 19.009320 	 46.754077 	 44.413390 	 C 	 1  ala 	 1.000000 
4725 	 C 	 19.691803 	 46.876170 	 43.692759 	 C 	 1  ala 	 1.000000 
4726 	 C 	 18.825969 	 47.343593 	 43.514301 	 C 	 1  ala 	 1.000000 
4727 	 C 	 18.558032 	 47.815471 	 44.354266 	 C 	 1  ala 	 1.000000 
4728 	 C 	 17.966253 	 48.621494 	 44.343121 	 C 	 1  ala 	 1.000000 
4729 	 C 	 18.484730 	 47.775709 	 44.217309 	 C 	 1  ala 	 1.000000 
4730 	 C 	 18.559513 	 48.701434 	 44.588039 	 C 	 1  ala 	 1.000000 
4731 	 C 	 18.506771 	 48.729774 	 45.586245 	 C 	 1  ala 	 1.000000 
4732 	 C 	 19.068770 	 49.089399 	 44.841378 	 C 	 1  ala 	 1.000000 
4733 	 C 	 19.191738 	 49.075064 	 43.849071 	 C 	 1  ala 	 1.000000 
4734 	 C 	 19.204298 	 49.352549 	 42.888423 	 C 	 1  ala 	 1.000000 
4735 	 C 	 19.960367 	 49.550370 	 42.264543 	 C 	 1  ala 	 1.000000 
4736 	 C 	 20.009791 	 49.234984 	 41.316867 	 C 	 1  ala 	 1.000000 
4737 	 C 	 20.747491 	 48.952055 	 41.929852 	 C 	 1  ala 	 1.000000 
4738 	 C 	 20.478524 	 49.817779 	 42.351963 	 C 	 1  ala 	 1.000000 
4739 	 C 	 20.531417 	 50.791534 	 42.130593 	 C 	 1  ala 	 1.000000 
4740 	 C 	 20.500960 	 50.315972 	 41.251438 	 C 	 1  ala 	 1.000000 
4741 	 C 	 20.612343 	 49.524091 	 41.851871 	 C 	 1  ala 	 1.000000 
4742 	 C 	 20.528168 	 48.669804 	 41.338931 	 C 	 1  ala 	 1.000000 
4743 	 C 	 19.784642 	 49.320400 	 41.493505 	 C 	 1  ala 	 1.000000 
4744 	 C 	 20.021013 	 50.211809 	 41.880183 	 C 	 1  ala 	 1.000000 
4745 	 C 	 20.635553 	 50.981128 	 42.054791 	 C 	 1  ala 	 1.000000 
4746 	 C 	 21.475435 	 50.454087 	 41.925077 	 C 	 1  ala 	 1.000000 
4747 	 C 	 22.272935 	 50.538227 	 42.522500 	 C 	 1  ala 	 1.000000 
4748 	 C 	 21.315312 	 50.328298 	 42.719703 	 C 	 1  ala 	 1.000000 
4749 	 C 	 20.925159 	 51.242196 	 42.831817 	 C 	 1  ala 	 1.000000 
4750 	 C 	 20.225830 	 51.915971 	 43.070492 	 C 	 1  ala 	 1.000000 
4751 	 C 	 20.084899 	 52.314861 	 43.976597 	 C 	 1  ala 	 1.000000 
4752 	 C 	 20.526185 	 52.274790 	 43.080125 	 C 	 1  ala 	 1.000000 
4753 	 C 	 21.447882 	 52.276541 	 43.468032 	 C 	 1  ala 	 1.000000 
4754 	 C 	 21.650324 	 51.679870 	 42.691500 	 C 	 1  ala 	 1.000000 
4755 	 C 	 22.604382 	 51.905112 	 42.889080 	 C 	 1  ala 	 1.000000 
4756 	 C 	 23.352397 	 51.429485 	 42.426204 	 C 	 1  ala 	 1.000000 
4757 	 C 	 23.274757 	 51.321007 	 43.417267 	 C 	 1  ala 	 1.000000 
4758 	 C 	 22.645705 	 51.076118 	 42.679484 	 C 	 1  ala 	 1.000000 
4759 	 C 	 23.588509 	 50.745956 	 42.633501 	 C 	 1  ala 	 1.000000 
4760 	 C 	 22.693830 	 50.311585 	 42.737768 	 C 	 1  ala 	 1.000000 
4761 	 C 	 23.674487 	 50.227132 	 42.561192 	 C 	 1  ala 	 1.000000 
4762 	 C 	 23.470869 	 51.181785 	 42.343989 	 C 	 1  ala 	 1.000000 
4763 	 C 	 23.297841 	 50.861992 	 43.275543 	 C 	 1  ala 	 1.000000 
4764 	 C 	 23.496655 	 51.480962 	 42.515709 	 C 	 1  ala 	 1.000000 
4765 	 C 	 23.287759 	 50.609048 	 42.072845 	 C 	 1  ala 	 1.000000 
4766 	 C 	 22.440423 	 50.685433 	 42.598381 	 C 	 1  ala 	 1.000000 
4767 	 C 	 23.247376 	 50.593841 	 42.014911 	 C 	 1  ala 	 1.000000 
4768 	 C 	 23.253264 	 51.451632 	 41.500946 	 C 	 1  ala 	 1.000000 
4769 	 C 	 22.899686 	 50.618439 	 41.926119 	 C 	 1  ala 	 1.000000 
4770 	 C 	 23.635714 	 50.758846 	 42.588350 	 C 	 1  ala 	 1.000000 
4771 	 C 	 23.881259 	 51.622298 	 42.147715 	 C 	 1  ala 	 1.000000 
4772 	 C 	 24.817569 	 51.738857 	 41.816448 	 C 	 1  ala 	 1.000000 
4773 	 C 	 25.204252 	 52.213469 	 41.025740 	 C 	 1  ala 	 1.000000 
4774 	 C 	 25.616989 	 51.340027 	 40.767384 	 C 	 1  ala 	 1.000000 
4775 	 C 	 24.846114 	 51.364085 	 41.403917 	 C 	 1  ala 	 1.000000 
4776 	 C 	 25.631141 	 50.771023 	 41.582833 	 C 	 1  ala 	 1.000000 
4777 	 C 	 26.268648 	 50.037421 	 41.347433 	 C 	 1  ala 	 1.000000 
4778 	 C 	 26.969406 	 50.711340 	 41.113400 	 C 	 1  ala 	 1.000000 
4779 	 C 	 26.612139 	 50.154678 	 41.863392 	 C 	 1  ala 	 1.000000 
4780 	 C 	 27.118962 	 49.747616 	 42.623281 	 C 	 1  ala 	 1.000000 
4781 	 C 	 27.948765 	 49.829571 	 42.071275 	 C 	 1  ala 	 1.000000 
4782 	 C 	 26.973313 	 49.687185 	 41.903285 	 C 	 1  ala 	 1.000000 
4783 	 C 	 27.552169 	 50.490043 	 42.045923 	 C 	 1  ala 	 1.000000 
4784 	 C 	 27.576114 	 50.375949 	 43.039105 	 C 	 1  ala 	 1.000000 
4785 	 C 	 27.380355 	 49.892585 	 43.892355 	 C 	 1  ala 	 1.000000 
4786 	 C 	 27.185879 	 49.168133 	 44.553679 	 C 	 1  ala 	 1.000000 
4787 	 C 	 26.728437 	 48.839973 	 45.380152 	 C 	 1  ala 	 1.000000 
4788 	 C 	 27.389018 	 48.974079 	 46.118832 	 C 	 1  ala 	 1.000000 
4789 	 C 	 27.839327 	 48.888386 	 45.230081 	 C 	 1  ala 	 1.000000 
4790 	 C 	 27.442461 	 47.980489 	 45.095097 	 C 	 1  ala 	 1.000000 
4791 	 C 	 28.292860 	 47.481017 	 45.260471 	 C 	 1  ala 	 1.000000 
4792 	 C 	 28.123883 	 48.090995 	 44.486279 	 C 	 1  ala 	 1.000000 
4793 	 C 	 28.004312 	 47.693418 	 45.396023 	 C 	 1  ala 	 1.000000 
4794 	 C 	 28.458773 	 47.648964 	 44.506367 	 C 	 1  ala 	 1.000000 
4795 	 C 	 28.470818 	 48.453059 	 43.911988 	 C 	 1  ala 	 1.000000 
4796 	 C 	 29.360195 	 48.546473 	 43.464460 	 C 	 1  ala 	 1.000000 
4797 	 C 	 29.265372 	 47.855065 	 42.748245 	 C 	 1  ala 	 1.000000 
4798 	 C 	 28.462001 	 48.430866 	 42.596431 	 C 	 1  ala 	 1.000000 
4799 	 C 	 28.616588 	 48.379354 	 41.609796 	 C 	 1  ala 	 1.000000 
4800 	 C 	 28.369864 	 48.977497 	 42.372261 	 C 	 1  ala 	 1.000000 
4801 	 C 	 28.936145 	 48.673071 	 43.138192 	 C 	 1  ala 	 1.000000 
4802 	 C 	 28.817064 	 47.993847 	 43.862399 	 C 	 1  ala 	 1.000000 
4803 	 C 	 28.942361 	 48.584037 	 44.659881 	 C 	 1  ala 	 1.000000 
4804 	 C 	 29.934258 	 48.492048 	 44.747507 	 C 	 1  ala 	 1.000000 
4805 	 C 	 30.220433 	 49.107499 	 44.013121 	 C 	 1  ala 	 1.000000 
4806 	 C 	 29.284781 	 49.457021 	 44.062003 	 C 	 1  ala 	 1.000000 
4807 	 C 	 28.919957 	 48.686007 	 44.583962 	 C 	 1  ala 	 1.000000 
4808 	 C 	 28.233401 	 48.265340 	 43.990936 	 C 	 1  ala 	 1.000000 
4809 	 C 	 27.249247 	 48.098895 	 44.052071 	 C 	 1  ala 	 1.000000 
4810 	 C 	 27.023614 	 47.132367 	 43.929953 	 C 	 1  ala 	 1.000000 
4811 	 C 	 26.201909 	 47.074502 	 44.496922 	 C 	 1  ala 	 1.000000 
4812 	 C 	 26.883097 	 47.661440 	 44.934515 	 C 	 1  ala 	 1.000000 
4813 	 C 	 27.080351 	 46.683105 	 44.871658 	 C 	 1  ala 	 1.000000 
4814 	 C 	 26.962099 	 46.402968 	 43.919009 	 C 	 1  ala 	 1.000000 
4815 	 C 	 27.092893 	 47.336524 	 44.252725 	 C 	 1  ala 	 1.000000 
4816 	 C 	 27.793131 	 48.050432 	 44.253383 	 C 	 1  ala 	 1.000000 
4817 	 C 	 28.690346 	 48.419106 	 44.010309 	 C 	 1  ala 	 1.000000 
4818 	 C 	 28.610689 	 49.308158 	 44.461133 	 C 	 1  ala 	 1.000000 
4819 	 C 	 29.238233 	 49.865713 	 45.004567 	 C 	 1  ala 	 1.000000 
4820 	 C 	 29.550137 	 49.229974 	 45.710649 	 C 	 1  ala 	 1.000000 
4821 	 C 	 29.466542 	 50.125622 	 45.273813 	 C 	 1  ala 	 1.000000 
4822 	 C 	 29.669522 	 51.104805 	 45.273662 	 C 	 1  ala 	 1.000000 
4823 	 C 	 29.159324 	 50.347384 	 44.866216 	 C 	 1  ala 	 1.000000 
4824 	 C 	 28.332310 	 50.807535 	 44.543247 	 C 	 1  ala 	 1.000000 
4825 	 C 	 28.512192 	 51.664976 	 45.025365 	 C 	 1  ala 	 1.000000 
4826 	 C 	 28.384889 	 50.673331 	 45.004536 	 C 	 1  ala 	 1.000000 
4827 	 C 	 28.829483 	 49.965163 	 44.456052 	 C 	 1  ala 	 1.000000 
4828 	 C 	 28.593478 	 49.715610 	 43.516890 	 C 	 1  ala 	 1.000000 
4829 	 C 	 27.866332 	 50.029615 	 44.127348 	 C 	 1  ala 	 1.000000 
4830 	 C 	 27.750924 	 50.862107 	 43.585464 	 C 	 1  ala 	 1.000000 
4831 	 C 	 27.586084 	 51.743315 	 44.028523 	 C 	 1  ala 	 1.000000 
4832 	 C 	 28.415152 	 52.302456 	 44.031356 	 C 	 1  ala 	 1.000000 
4833 	 C 	 27.898238 	 51.855528 	 44.761463 	 C 	 1  ala 	 1.000000 
4834 	 C 	 28.370938 	 52.459081 	 45.403552 	 C 	 1  ala 	 1.000000 
4835 	 C 	 28.205818 	 51.473010 	 45.423518 	 C 	 1  ala 	 1.000000 
4836 	 C 	 27.568393 	 50.878369 	 45.913510 	 C 	 1  ala 	 1.000000 
4837 	 C 	 28.186784 	 50.153086 	 45.610927 	 C 	 1  ala 	 1.000000 
4838 	 C 	 28.370379 	 51.109292 	 45.382973 	 C 	 1  ala 	 1.000000 
4839 	 C 	 27.434257 	 51.300398 	 45.087756 	 C 	 1  ala 	 1.000000 
4840 	 C 	 28.247471 	 51.588746 	 44.582248 	 C 	 1  ala 	 1.000000 
4841 	 C 	 28.069400 	 52.176144 	 45.371713 	 C 	 1  ala 	 1.000000 
4842 	 C 	 28.022763 	 52.535649 	 44.439736 	 C 	 1  ala 	 1.000000 
4843 	 C 	 28.257395 	 53.467825 	 44.164061 	 C 	 1  ala 	 1.000000 
4844 	 C 	 27.968989 	 52.598909 	 43.761807 	 C 	 1  ala 	 1.000000 
4845 	 C 	 27.993565 	 52.697496 	 42.766982 	 C 	 1  ala 	 1.000000 
4846 	 C 	 27.081569 	 52.951121 	 43.089375 	 C 	 1  ala 	 1.000000 
4847 	 C 	 26.155702 	 52.577187 	 43.143650 	 C 	 1  ala 	 1.000000 
4848 	 C 	 25.861064 	 51.644251 	 43.350576 	 C 	 1  ala 	 1.000000 
4849 	 C 	 25.397644 	 51.528786 	 44.229161 	 C 	 1  ala 	 1.000000 
4850 	 C 	 26.021609 	 50.753967 	 44.330768 	 C 	 1  ala 	 1.000000 
4851 	 C 	 26.408944 	 50.088672 	 44.969011 	 C 	 1  ala 	 1.000000 
4852 	 C 	 27.149495 	 49.532558 	 44.591757 	 C 	 1  ala 	 1.000000 
4853 	 C 	 28.008508 	 49.047472 	 44.428083 	 C 	 1  ala 	 1.000000 
4854 	 C 	 28.887378 	 49.338266 	 44.049895 	 C 	 1  ala 	 1.000000 
4855 	 C 	 28.406328 	 49.571396 	 44.895024 	 C 	 1  ala 	 1.000000 
4856 	 C 	 28.409407 	 50.171120 	 45.695225 	 C 	 1  ala 	 1.000000 
4857 	 C 	 28.427254 	 51.131528 	 45.973247 	 C 	 1  ala 	 1.000000 
4858 	 C 	 27.824203 	 50.717398 	 46.655029 	 C 	 1  ala 	 1.000000 
4859 	 C 	 27.509172 	 50.222663 	 47.464963 	 C 	 1  ala 	 1.000000 
4860 	 C 	 27.452330 	 50.435480 	 48.440401 	 C 	 1  ala 	 1.000000 
4861 	 C 	 27.804310 	 49.816870 	 47.737953 	 C 	 1  ala 	 1.000000 
4862 	 C 	 28.462702 	 49.077638 	 47.879575 	 C 	 1  ala 	 1.000000 
4863 	 C 	 28.058842 	 48.206709 	 48.159540 	 C 	 1  ala 	 1.000000 
4864 	 C 	 28.880922 	 47.643034 	 48.079203 	 C 	 1  ala 	 1.000000 
4865 	 C 	 28.241814 	 47.997813 	 48.761605 	 C 	 1  ala 	 1.000000 
4866 	 C 	 28.227371 	 47.111743 	 48.298279 	 C 	 1  ala 	 1.000000 
4867 	 C 	 27.988871 	 46.143024 	 48.229711 	 C 	 1  ala 	 1.000000 
4868 	 C 	 28.127008 	 46.710482 	 47.417979 	 C 	 1  ala 	 1.000000 
4869 	 C 	 28.638724 	 46.607897 	 46.564970 	 C 	 1  ala 	 1.000000 
4870 	 C 	 27.734148 	 46.247674 	 46.792969 	 C 	 1  ala 	 1.000000 
4871 	 C 	 27.751905 	 46.282127 	 47.792217 	 C 	 1  ala 	 1.000000 
4872 	 C 	 27.124222 	 45.551138 	 47.524508 	 C 	 1  ala 	 1.000000 
4873 	 C 	 26.735660 	 44.957213 	 46.820041 	 C 	 1  ala 	 1.000000 
4874 	 C 	 27.537847 	 44.785784 	 46.248108 	 C 	 1  ala 	 1.000000 
4875 	 C 	 26.768924 	 44.234687 	 45.923995 	 C 	 1  ala 	 1.000000 
4876 	 C 	 27.253249 	 44.173378 	 46.796732 	 C 	 1  ala 	 1.000000 
4877 	 C 	 26.683133 	 44.098602 	 45.978578 	 C 	 1  ala 	 1.000000 
4878 	 C 	 27.194959 	 43.241542 	 45.919560 	 C 	 1  ala 	 1.000000 
4879 	 C 	 27.940659 	 43.876193 	 46.122416 	 C 	 1  ala 	 1.000000 
4880 	 C 	 28.457461 	 44.131022 	 46.939715 	 C 	 1  ala 	 1.000000 
4881 	 C 	 28.286330 	 43.146323 	 46.906840 	 C 	 1  ala 	 1.000000 
4882 	 C 	 27.779822 	 42.734199 	 47.664206 	 C 	 1  ala 	 1.000000 
4883 	 C 	 27.565743 	 43.684835 	 47.888844 	 C 	 1  ala 	 1.000000 
4884 	 C 	 28.362204 	 43.167092 	 48.201240 	 C 	 1  ala 	 1.000000 
4885 	 C 	 28.962207 	 43.766115 	 48.731493 	 C 	 1  ala 	 1.000000 
4886 	 C 	 28.645474 	 44.444710 	 48.068779 	 C 	 1  ala 	 1.000000 
4887 	 C 	 27.962914 	 44.890533 	 48.647876 	 C 	 1  ala 	 1.000000 
4888 	 C 	 27.833787 	 44.572401 	 47.708664 	 C 	 1  ala 	 1.000000 
4889 	 C 	 28.383408 	 45.376989 	 47.933510 	 C 	 1  ala 	 1.000000 
4890 	 C 	 27.392683 	 45.487133 	 47.853944 	 C 	 1  ala 	 1.000000 
4891 	 C 	 26.788169 	 46.273194 	 47.724827 	 C 	 1  ala 	 1.000000 
4892 	 C 	 25.931415 	 46.238111 	 47.210296 	 C 	 1  ala 	 1.000000 
4893 	 C 	 25.580820 	 45.379133 	 46.837147 	 C 	 1  ala 	 1.000000 
4894 	 C 	 24.653457 	 45.227459 	 47.179191 	 C 	 1  ala 	 1.000000 
4895 	 C 	 24.635304 	 46.213904 	 47.342274 	 C 	 1  ala 	 1.000000 
4896 	 C 	 24.727594 	 45.793991 	 48.245134 	 C 	 1  ala 	 1.000000 
4897 	 C 	 24.901680 	 46.594669 	 47.671891 	 C 	 1  ala 	 1.000000 
4898 	 C 	 25.433862 	 45.778387 	 47.447244 	 C 	 1  ala 	 1.000000 
4899 	 C 	 25.379566 	 46.475788 	 48.161866 	 C 	 1  ala 	 1.000000 
4900 	 C 	 25.878909 	 47.335482 	 48.269486 	 C 	 1  ala 	 1.000000 
4901 	 C 	 25.456333 	 47.428456 	 49.171033 	 C 	 1  ala 	 1.000000 
4902 	 C 	 25.134494 	 47.121609 	 48.275340 	 C 	 1  ala 	 1.000000 
4903 	 C 	 25.478683 	 46.387655 	 48.860870 	 C 	 1  ala 	 1.000000 
4904 	 C 	 25.495419 	 45.732708 	 49.616359 	 C 	 1  ala 	 1.000000 
4905 	 C 	 24.741794 	 46.388151 	 49.566940 	 C 	 1  ala 	 1.000000 
4906 	 C 	 23.816422 	 46.730811 	 49.729026 	 C 	 1  ala 	 1.000000 
4907 	 C 	 24.752499 	 46.448803 	 49.518714 	 C 	 1  ala 	 1.000000 
4908 	 C 	 24.019616 	 47.025138 	 49.157161 	 C 	 1  ala 	 1.000000 
4909 	 C 	 24.726532 	 46.759781 	 49.812794 	 C 	 1  ala 	 1.000000 
4910 	 C 	 24.231433 	 47.532172 	 49.414938 	 C 	 1  ala 	 1.000000 
4911 	 C 	 24.880995 	 47.277496 	 48.698551 	 C 	 1  ala 	 1.000000 
4912 	 C 	 25.566419 	 47.884003 	 48.295633 	 C 	 1  ala 	 1.000000 
4913 	 C 	 24.667005 	 48.133438 	 48.654571 	 C 	 1  ala 	 1.000000 
4914 	 C 	 24.175560 	 47.436637 	 48.132125 	 C 	 1  ala 	 1.000000 
4915 	 C 	 24.853579 	 46.784000 	 48.470290 	 C 	 1  ala 	 1.000000 
4916 	 C 	 24.260764 	 46.119035 	 48.015987 	 C 	 1  ala 	 1.000000 
4917 	 C 	 23.787320 	 46.970443 	 48.241720 	 C 	 1  ala 	 1.000000 
4918 	 C 	 24.578651 	 47.034553 	 48.849737 	 C 	 1  ala 	 1.000000 
4919 	 C 	 25.465015 	 46.887871 	 49.288877 	 C 	 1  ala 	 1.000000 
4920 	 C 	 25.492396 	 45.898474 	 49.431503 	 C 	 1  ala 	 1.000000 
4921 	 C 	 26.199154 	 45.206695 	 49.579610 	 C 	 1  ala 	 1.000000 
4922 	 C 	 25.830949 	 44.414842 	 49.092379 	 C 	 1  ala 	 1.000000 
4923 	 C 	 24.961771 	 44.874694 	 48.910540 	 C 	 1  ala 	 1.000000 
4924 	 C 	 24.255904 	 45.084751 	 48.234058 	 C 	 1  ala 	 1.000000 
4925 	 C 	 24.626613 	 45.800552 	 48.825839 	 C 	 1  ala 	 1.000000 
4926 	 C 	 24.791631 	 46.664641 	 49.301358 	 C 	 1  ala 	 1.000000 
4927 	 C 	 25.692446 	 47.093600 	 49.368633 	 C 	 1  ala 	 1.000000 
4928 	 C 	 26.347638 	 47.757088 	 49.729890 	 C 	 1  ala 	 1.000000 
4929 	 C 	 25.389954 	 47.669768 	 49.455634 	 C 	 1  ala 	 1.000000 
4930 	 C 	 25.078124 	 48.577623 	 49.175346 	 C 	 1  ala 	 1.000000 
4931 	 C 	 26.024113 	 48.412675 	 48.896247 	 C 	 1  ala 	 1.000000 
4932 	 C 	 25.658405 	 48.695197 	 48.009433 	 C 	 1  ala 	 1.000000 
4933 	 C 	 25.345860 	 48.062476 	 48.717938 	 C 	 1  ala 	 1.000000 
4934 	 C 	 26.254383 	 47.646505 	 48.757369 	 C 	 1  ala 	 1.000000 
4935 	 C 	 26.798738 	 47.863377 	 49.567705 	 C 	 1  ala 	 1.000000 
4936 	 C 	 27.191352 	 48.767759 	 49.400531 	 C 	 1  ala 	 1.000000 
4937 	 C 	 27.161228 	 49.253926 	 48.527184 	 C 	 1  ala 	 1.000000 
4938 	 C 	 26.171159 	 49.207001 	 48.659705 	 C 	 1  ala 	 1.000000 
4939 	 C 	 25.567283 	 48.489935 	 48.311639 	 C 	 1  ala 	 1.000000 
4940 	 C 	 26.168338 	 48.985519 	 48.938639 	 C 	 1  ala 	 1.000000 
4941 	 C 	 26.590347 	 48.079015 	 48.951284 	 C 	 1  ala 	 1.000000 
4942 	 C 	 27.050995 	 47.941492 	 48.074421 	 C 	 1  ala 	 1.000000 
4943 	 C 	 27.462002 	 48.055857 	 47.169990 	 C 	 1  ala 	 1.000000 
4944 	 C 	 27.020208 	 47.868329 	 46.292693 	 C 	 1  ala 	 1.000000 
4945 	 C 	 27.178784 	 46.935211 	 46.615408 	 C 	 1  ala 	 1.000000 
4946 	 C 	 26.825502 	 47.472137 	 47.381503 	 C 	 1  ala 	 1.000000 
4947 	 C 	 27.246784 	 46.708413 	 47.870631 	 C 	 1  ala 	 1.000000 
4948 	 C 	 26.895620 	 46.640527 	 46.936781 	 C 	 1  ala 	 1.000000 
4949 	 C 	 26.309256 	 47.447344 	 46.864502 	 C 	 1  ala 	 1.000000 
4950 	 C 	 26.637787 	 47.537917 	 45.924361 	 C 	 1  ala 	 1.000000 
4951 	 C 	 26.374087 	 47.675568 	 46.879094 	 C 	 1  ala 	 1.000000 
4952 	 C 	 27.057993 	 48.223449 	 47.360862 	 C 	 1  ala 	 1.000000 
4953 	 C 	 26.581715 	 49.021369 	 47.730298 	 C 	 1  ala 	 1.000000 
4954 	 C 	 26.076958 	 49.799110 	 48.104915 	 C 	 1  ala 	 1.000000 
4955 	 C 	 25.271880 	 50.356154 	 48.308758 	 C 	 1  ala 	 1.000000 
4956 	 C 	 25.304467 	 51.158987 	 47.713445 	 C 	 1  ala 	 1.000000 
4957 	 C 	 24.926690 	 52.028241 	 47.394568 	 C 	 1  ala 	 1.000000 
4958 	 C 	 25.757616 	 51.873126 	 47.928891 	 C 	 1  ala 	 1.000000 
4959 	 C 	 25.875802 	 51.067167 	 48.508944 	 C 	 1  ala 	 1.000000 
4960 	 C 	 26.717407 	 51.606463 	 48.479584 	 C 	 1  ala 	 1.000000 
4961 	 C 	 27.641542 	 51.944140 	 48.658324 	 C 	 1  ala 	 1.000000 
4962 	 C 	 27.058973 	 52.271847 	 49.402112 	 C 	 1  ala 	 1.000000 
4963 	 C 	 26.648311 	 53.183634 	 49.403704 	 C 	 1  ala 	 1.000000 
4964 	 C 	 26.256967 	 52.733587 	 48.601016 	 C 	 1  ala 	 1.000000 
4965 	 C 	 25.791543 	 53.501509 	 49.041102 	 C 	 1  ala 	 1.000000 
4966 	 C 	 25.886843 	 52.918225 	 48.234444 	 C 	 1  ala 	 1.000000 
4967 	 C 	 26.250028 	 53.527652 	 47.529678 	 C 	 1  ala 	 1.000000 
4968 	 C 	 25.614673 	 52.880736 	 47.951369 	 C 	 1  ala 	 1.000000 
4969 	 C 	 26.216572 	 52.167154 	 48.309864 	 C 	 1  ala 	 1.000000 
4970 	 C 	 25.350993 	 52.342728 	 47.840878 	 C 	 1  ala 	 1.000000 
4971 	 C 	 25.629088 	 52.958989 	 47.104071 	 C 	 1  ala 	 1.000000 
4972 	 C 	 24.831857 	 52.807030 	 47.688307 	 C 	 1  ala 	 1.000000 
4973 	 C 	 25.635575 	 53.149428 	 47.201685 	 C 	 1  ala 	 1.000000 
4974 	 C 	 26.174446 	 52.395610 	 47.577685 	 C 	 1  ala 	 1.000000 
4975 	 C 	 25.673823 	 53.214629 	 47.858015 	 C 	 1  ala 	 1.000000 
4976 	 C 	 24.689530 	 53.338999 	 47.983313 	 C 	 1  ala 	 1.000000 
4977 	 C 	 25.343821 	 53.532763 	 48.714312 	 C 	 1  ala 	 1.000000 
4978 	 C 	 24.393840 	 53.291420 	 48.516093 	 C 	 1  ala 	 1.000000 
4979 	 C 	 25.068636 	 52.736724 	 48.029306 	 C 	 1  ala 	 1.000000 
4980 	 C 	 25.793208 	 52.069357 	 47.857210 	 C 	 1  ala 	 1.000000 
4981 	 C 	 25.804222 	 51.349592 	 47.163079 	 C 	 1  ala 	 1.000000 
4982 	 C 	 26.574684 	 50.994867 	 46.633401 	 C 	 1  ala 	 1.000000 
4983 	 C 	 27.551867 	 51.148231 	 46.780347 	 C 	 1  ala 	 1.000000 
4984 	 C 	 27.038303 	 51.791513 	 46.212508 	 C 	 1  ala 	 1.000000 
4985 	 C 	 27.172718 	 50.823341 	 46.001380 	 C 	 1  ala 	 1.000000 
4986 	 C 	 27.683307 	 50.297736 	 46.681850 	 C 	 1  ala 	 1.000000 
4987 	 C 	 28.485279 	 49.723458 	 46.846308 	 C 	 1  ala 	 1.000000 
4988 	 C 	 27.607779 	 50.159794 	 46.647300 	 C 	 1  ala 	 1.000000 
4989 	 C 	 28.143244 	 50.734606 	 47.266063 	 C 	 1  ala 	 1.000000 
4990 	 C 	 27.803205 	 49.831527 	 47.528404 	 C 	 1  ala 	 1.000000 
4991 	 C 	 28.018459 	 50.223849 	 48.422691 	 C 	 1  ala 	 1.000000 
4992 	 C 	 27.666976 	 51.081961 	 48.796994 	 C 	 1  ala 	 1.000000 
4993 	 C 	 27.518873 	 51.014524 	 49.783664 	 C 	 1  ala 	 1.000000 
4994 	 C 	 26.771684 	 50.358585 	 49.676644 	 C 	 1  ala 	 1.000000 
4995 	 C 	 25.792901 	 50.416524 	 49.873179 	 C 	 1  ala 	 1.000000 
4996 	 C 	 26.444070 	 49.850326 	 49.367809 	 C 	 1  ala 	 1.000000 
4997 	 C 	 25.575620 	 49.360776 	 49.446133 	 C 	 1  ala 	 1.000000 
4998 	 C 	 25.195583 	 50.044957 	 50.068603 	 C 	 1  ala 	 1.000000 
4999 	 C 	 24.618400 	 49.906792 	 50.873445 	 C 	 1  ala 	 1.000000 
5000 	 C 	 24.335738 	 49.006079 	 51.203318 	 C 	 1  ala 	 1.000000 
5001 	 C 	 24.913197 	 48.196734 	 51.096069 	 C 	 1  ala 	 1.000000 
5002 	 C 	 23.984732 	 47.910721 	 51.333027 	 C 	 1  ala 	 1.000000 
5003 	 C 	 24.222023 	 48.875816 	 51.222190 	 C 	 1  ala 	 1.000000 
5004 	 C 	 24.394435 	 47.890993 	 51.242116 	 C 	 1  ala 	 1.000000 
5005 	 C 	 25.137005 	 47.261967 	 51.472151 	 C 	 1  ala 	 1.000000 
5006 	 C 	 24.158045 	 47.466017 	 51.472144 	 C 	 1  ala 	 1.000000 
5007 	 C 	 24.698984 	 48.216829 	 51.093112 	 C 	 1  ala 	 1.000000 
5008 	 C 	 23.930884 	 47.750276 	 51.531691 	 C 	 1  ala 	 1.000000 
5009 	 C 	 23.725885 	 48.532268 	 50.943078 	 C 	 1  ala 	 1.000000 
5010 	 C 	 24.401572 	 47.797702 	 50.880946 	 C 	 1  ala 	 1.000000 
5011 	 C 	 25.005608 	 47.051441 	 50.601243 	 C 	 1  ala 	 1.000000 
5012 	 C 	 25.703352 	 46.346648 	 50.473100 	 C 	 1  ala 	 1.000000 
5013 	 C 	 26.257459 	 47.082248 	 50.083412 	 C 	 1  ala 	 1.000000 
5014 	 C 	 27.239061 	 47.168740 	 49.913183 	 C 	 1  ala 	 1.000000 
5015 	 C 	 26.501681 	 46.534908 	 50.146696 	 C 	 1  ala 	 1.000000 
5016 	 C 	 26.572174 	 46.732153 	 49.168879 	 C 	 1  ala 	 1.000000 
5017 	 C 	 27.555716 	 46.656770 	 49.333082 	 C 	 1  ala 	 1.000000 
5018 	 C 	 27.477236 	 45.682080 	 49.123749 	 C 	 1  ala 	 1.000000 
5019 	 C 	 28.276420 	 45.481255 	 48.557204 	 C 	 1  ala 	 1.000000 
5020 	 C 	 28.330151 	 44.605429 	 49.036830 	 C 	 1  ala 	 1.000000 
5021 	 C 	 28.910045 	 45.197114 	 48.476801 	 C 	 1  ala 	 1.000000 
5022 	 C 	 28.715845 	 46.167084 	 48.330365 	 C 	 1  ala 	 1.000000 
5023 	 C 	 29.548447 	 45.811064 	 48.754658 	 C 	 1  ala 	 1.000000 
5024 	 C 	 30.146277 	 45.132851 	 49.182007 	 C 	 1  ala 	 1.000000 
5025 	 C 	 29.487107 	 44.618846 	 49.730909 	 C 	 1  ala 	 1.000000 
5026 	 C 	 29.364695 	 44.266036 	 48.803256 	 C 	 1  ala 	 1.000000 
5027 	 C 	 28.861495 	 43.406425 	 48.891906 	 C 	 1  ala 	 1.000000 
5028 	 C 	 28.955864 	 43.406097 	 47.896369 	 C 	 1  ala 	 1.000000 
5029 	 C 	 27.992334 	 43.630067 	 48.042814 	 C 	 1  ala 	 1.000000 
5030 	 C 	 28.233455 	 43.213318 	 47.166355 	 C 	 1  ala 	 1.000000 
5031 	 C 	 27.370368 	 43.697910 	 47.024050 	 C 	 1  ala 	 1.000000 
5032 	 C 	 28.217213 	 43.545599 	 47.533613 	 C 	 1  ala 	 1.000000 
5033 	 C 	 28.938634 	 42.987111 	 47.943055 	 C 	 1  ala 	 1.000000 
5034 	 C 	 29.298810 	 43.587937 	 48.656694 	 C 	 1  ala 	 1.000000 
5035 	 C 	 29.599641 	 43.066362 	 47.858282 	 C 	 1  ala 	 1.000000 
5036 	 C 	 29.173758 	 42.954155 	 46.960489 	 C 	 1  ala 	 1.000000 
5037 	 C 	 29.992540 	 42.609728 	 47.419799 	 C 	 1  ala 	 1.000000 
5038 	 C 	 30.674135 	 43.010623 	 46.807662 	 C 	 1  ala 	 1.000000 
5039 	 C 	 29.989337 	 42.420305 	 47.234950 	 C 	 1  ala 	 1.000000 
5040 	 C 	 29.068646 	 42.469261 	 46.847739 	 C 	 1  ala 	 1.000000 
5041 	 C 	 28.310168 	 43.114117 	 46.941927 	 C 	 1  ala 	 1.000000 
5042 	 C 	 27.968946 	 42.847344 	 47.843259 	 C 	 1  ala 	 1.000000 
5043 	 C 	 27.564704 	 42.260688 	 47.141531 	 C 	 1  ala 	 1.000000 
5044 	 C 	 27.107012 	 43.146779 	 47.214743 	 C 	 1  ala 	 1.000000 
5045 	 C 	 27.356097 	 43.675498 	 46.403316 	 C 	 1  ala 	 1.000000 
5046 	 C 	 27.068320 	 44.616469 	 46.225107 	 C 	 1  ala 	 1.000000 
5047 	 C 	 27.715780 	 45.337641 	 45.978718 	 C 	 1  ala 	 1.000000 
5048 	 C 	 28.335654 	 45.391580 	 46.761563 	 C 	 1  ala 	 1.000000 
5049 	 C 	 27.740754 	 45.722225 	 47.494208 	 C 	 1  ala 	 1.000000 
5050 	 C 	 27.606134 	 46.577292 	 46.993471 	 C 	 1  ala 	 1.000000 
5051 	 C 	 27.139286 	 46.378507 	 47.855177 	 C 	 1  ala 	 1.000000 
5052 	 C 	 27.983432 	 46.056379 	 48.283723 	 C 	 1  ala 	 1.000000 
5053 	 C 	 28.645395 	 45.549695 	 48.836060 	 C 	 1  ala 	 1.000000 
5054 	 C 	 27.936801 	 44.846817 	 48.773943 	 C 	 1  ala 	 1.000000 
5055 	 C 	 27.847202 	 44.309035 	 49.612252 	 C 	 1  ala 	 1.000000 
5056 	 C 	 27.991153 	 43.424404 	 49.168735 	 C 	 1  ala 	 1.000000 
5057 	 C 	 28.695306 	 44.119133 	 49.315432 	 C 	 1  ala 	 1.000000 
5058 	 C 	 28.779986 	 43.321735 	 49.912915 	 C 	 1  ala 	 1.000000 
5059 	 C 	 29.191676 	 43.748222 	 49.107545 	 C 	 1  ala 	 1.000000 
5060 	 C 	 29.770200 	 43.939793 	 49.900395 	 C 	 1  ala 	 1.000000 
5061 	 C 	 30.157898 	 43.019308 	 49.949365 	 C 	 1  ala 	 1.000000 
5062 	 C 	 30.312877 	 42.108546 	 50.332111 	 C 	 1  ala 	 1.000000 
5063 	 C 	 30.830019 	 42.926214 	 50.585060 	 C 	 1  ala 	 1.000000 
5064 	 C 	 29.926965 	 42.749046 	 50.193774 	 C 	 1  ala 	 1.000000 
5065 	 C 	 30.147933 	 42.311313 	 51.065303 	 C 	 1  ala 	 1.000000 
5066 	 C 	 30.932964 	 41.745277 	 51.316959 	 C 	 1  ala 	 1.000000 
5067 	 C 	 30.577318 	 42.033900 	 52.205899 	 C 	 1  ala 	 1.000000 
5068 	 C 	 31.124873 	 42.493896 	 51.506908 	 C 	 1  ala 	 1.000000 
5069 	 C 	 31.711143 	 41.713194 	 51.723224 	 C 	 1  ala 	 1.000000 
5070 	 C 	 31.490626 	 41.533604 	 52.681931 	 C 	 1  ala 	 1.000000 
5071 	 C 	 31.785521 	 40.595925 	 52.498097 	 C 	 1  ala 	 1.000000 
5072 	 C 	 31.616851 	 41.409060 	 53.055199 	 C 	 1  ala 	 1.000000 
5073 	 C 	 30.821095 	 41.783593 	 52.579281 	 C 	 1  ala 	 1.000000 
5074 	 C 	 31.454497 	 41.079381 	 52.900044 	 C 	 1  ala 	 1.000000 
5075 	 C 	 31.001712 	 40.305570 	 53.342992 	 C 	 1  ala 	 1.000000 
5076 	 C 	 30.535295 	 40.022042 	 54.180887 	 C 	 1  ala 	 1.000000 
5077 	 C 	 30.063614 	 39.855188 	 53.315048 	 C 	 1  ala 	 1.000000 
5078 	 C 	 30.491893 	 40.521911 	 52.705082 	 C 	 1  ala 	 1.000000 
5079 	 C 	 29.719101 	 40.068286 	 53.148949 	 C 	 1  ala 	 1.000000 
5080 	 C 	 29.731895 	 39.071861 	 53.232457 	 C 	 1  ala 	 1.000000 
5081 	 C 	 29.911096 	 40.044319 	 53.381493 	 C 	 1  ala 	 1.000000 
5082 	 C 	 29.475995 	 40.941679 	 53.455203 	 C 	 1  ala 	 1.000000 
5083 	 C 	 29.858067 	 40.678270 	 52.569406 	 C 	 1  ala 	 1.000000 
5084 	 C 	 30.483537 	 39.995972 	 52.947899 	 C 	 1  ala 	 1.000000 
5085 	 C 	 29.496069 	 39.913460 	 52.813366 	 C 	 1  ala 	 1.000000 
5086 	 C 	 30.429095 	 40.271959 	 52.782694 	 C 	 1  ala 	 1.000000 
5087 	 C 	 30.553426 	 39.280961 	 52.733037 	 C 	 1  ala 	 1.000000 
5088 	 C 	 30.264245 	 39.916760 	 52.017401 	 C 	 1  ala 	 1.000000 
5089 	 C 	 30.074556 	 40.049178 	 52.990275 	 C 	 1  ala 	 1.000000 
5090 	 C 	 30.615964 	 39.656740 	 53.733828 	 C 	 1  ala 	 1.000000 
5091 	 C 	 31.016843 	 40.572497 	 53.707664 	 C 	 1  ala 	 1.000000 
5092 	 C 	 31.162713 	 40.970690 	 54.613294 	 C 	 1  ala 	 1.000000 
5093 	 C 	 30.190860 	 40.739919 	 54.660681 	 C 	 1  ala 	 1.000000 
5094 	 C 	 30.346069 	 40.299296 	 53.776508 	 C 	 1  ala 	 1.000000 
5095 	 C 	 30.791427 	 41.063371 	 53.309770 	 C 	 1  ala 	 1.000000 
5096 	 C 	 31.139277 	 40.700115 	 52.445452 	 C 	 1  ala 	 1.000000 
5097 	 C 	 31.683070 	 41.458247 	 52.805348 	 C 	 1  ala 	 1.000000 
5098 	 C 	 32.331156 	 41.695214 	 52.081586 	 C 	 1  ala 	 1.000000 
5099 	 C 	 32.924263 	 41.413945 	 51.327190 	 C 	 1  ala 	 1.000000 
5100 	 C 	 33.128715 	 42.285047 	 51.773711 	 C 	 1  ala 	 1.000000 
5101 	 C 	 33.673210 	 42.879239 	 51.181713 	 C 	 1  ala 	 1.000000 
5102 	 C 	 33.829678 	 43.819502 	 50.879348 	 C 	 1  ala 	 1.000000 
5103 	 C 	 33.929799 	 44.747869 	 50.521423 	 C 	 1  ala 	 1.000000 
5104 	 C 	 33.327109 	 45.105932 	 51.234554 	 C 	 1  ala 	 1.000000 
5105 	 C 	 33.637185 	 46.045691 	 51.378448 	 C 	 1  ala 	 1.000000 
5106 	 C 	 33.247242 	 45.795802 	 50.492164 	 C 	 1  ala 	 1.000000 
5107 	 C 	 33.221176 	 46.378809 	 49.680116 	 C 	 1  ala 	 1.000000 
5108 	 C 	 32.729241 	 46.665246 	 50.502280 	 C 	 1  ala 	 1.000000 
5109 	 C 	 33.129768 	 46.688792 	 51.418263 	 C 	 1  ala 	 1.000000 
5110 	 C 	 32.829550 	 46.272104 	 50.560218 	 C 	 1  ala 	 1.000000 
5111 	 C 	 31.925113 	 46.541780 	 50.890776 	 C 	 1  ala 	 1.000000 
5112 	 C 	 32.273199 	 46.378061 	 51.813832 	 C 	 1  ala 	 1.000000 
5113 	 C 	 31.521738 	 45.886888 	 52.254351 	 C 	 1  ala 	 1.000000 
5114 	 C 	 31.214447 	 46.034779 	 51.314297 	 C 	 1  ala 	 1.000000 
5115 	 C 	 30.836908 	 45.150558 	 51.589283 	 C 	 1  ala 	 1.000000 
5116 	 C 	 30.173402 	 44.873567 	 50.894275 	 C 	 1  ala 	 1.000000 
5117 	 C 	 29.883266 	 45.814703 	 51.067719 	 C 	 1  ala 	 1.000000 
5118 	 C 	 28.898065 	 45.644405 	 51.087173 	 C 	 1  ala 	 1.000000 
5119 	 C 	 29.022969 	 45.419422 	 50.120849 	 C 	 1  ala 	 1.000000 
5120 	 C 	 29.250700 	 46.360146 	 49.869499 	 C 	 1  ala 	 1.000000 
5121 	 C 	 29.573732 	 45.635155 	 49.261192 	 C 	 1  ala 	 1.000000 
5122 	 C 	 29.897178 	 45.319526 	 50.153246 	 C 	 1  ala 	 1.000000 
5123 	 C 	 29.690963 	 45.430368 	 49.181038 	 C 	 1  ala 	 1.000000 
5124 	 C 	 30.383690 	 45.723081 	 48.521911 	 C 	 1  ala 	 1.000000 
5125 	 C 	 30.244595 	 45.700014 	 49.511921 	 C 	 1  ala 	 1.000000 
5126 	 C 	 30.165705 	 45.067629 	 48.741294 	 C 	 1  ala 	 1.000000 
5127 	 C 	 29.190192 	 45.082038 	 48.960765 	 C 	 1  ala 	 1.000000 
5128 	 C 	 28.819260 	 44.741532 	 48.096783 	 C 	 1  ala 	 1.000000 
5129 	 C 	 28.916447 	 44.065731 	 48.827432 	 C 	 1  ala 	 1.000000 
5130 	 C 	 28.644044 	 45.015582 	 48.980988 	 C 	 1  ala 	 1.000000 
5131 	 C 	 28.553990 	 44.623970 	 48.065275 	 C 	 1  ala 	 1.000000 
5132 	 C 	 28.059460 	 44.869732 	 48.898966 	 C 	 1  ala 	 1.000000 
5133 	 C 	 28.153331 	 45.139835 	 47.940721 	 C 	 1  ala 	 1.000000 
5134 	 C 	 28.330005 	 44.357477 	 48.537969 	 C 	 1  ala 	 1.000000 
5135 	 C 	 28.530012 	 45.278798 	 48.871382 	 C 	 1  ala 	 1.000000 
5136 	 C 	 28.772699 	 44.354624 	 48.576417 	 C 	 1  ala 	 1.000000 
5137 	 C 	 28.752901 	 43.382375 	 48.343309 	 C 	 1  ala 	 1.000000 
5138 	 C 	 29.507316 	 42.739770 	 48.477162 	 C 	 1  ala 	 1.000000 
5139 	 C 	 29.460444 	 41.947223 	 49.085169 	 C 	 1  ala 	 1.000000 
5140 	 C 	 30.051332 	 41.643045 	 48.337956 	 C 	 1  ala 	 1.000000 
5141 	 C 	 29.594382 	 41.828115 	 47.467930 	 C 	 1  ala 	 1.000000 
5142 	 C 	 29.552336 	 42.105758 	 46.508166 	 C 	 1  ala 	 1.000000 
5143 	 C 	 28.917100 	 42.498993 	 47.172879 	 C 	 1  ala 	 1.000000 
5144 	 C 	 29.506437 	 42.850162 	 47.900451 	 C 	 1  ala 	 1.000000 
5145 	 C 	 28.688880 	 42.452874 	 48.317298 	 C 	 1  ala 	 1.000000 
5146 	 C 	 28.318099 	 43.245152 	 48.801877 	 C 	 1  ala 	 1.000000 
5147 	 C 	 28.378791 	 42.321239 	 49.179636 	 C 	 1  ala 	 1.000000 
5148 	 C 	 27.487532 	 42.390688 	 49.627781 	 C 	 1  ala 	 1.000000 
5149 	 C 	 27.091084 	 42.981836 	 48.925375 	 C 	 1  ala 	 1.000000 
5150 	 C 	 27.152405 	 42.712095 	 47.964397 	 C 	 1  ala 	 1.000000 
5151 	 C 	 27.379930 	 42.931181 	 48.913203 	 C 	 1  ala 	 1.000000 
5152 	 C 	 28.131886 	 43.235310 	 48.328337 	 C 	 1  ala 	 1.000000 
5153 	 C 	 28.030627 	 42.945531 	 47.376615 	 C 	 1  ala 	 1.000000 
5154 	 C 	 28.532335 	 42.137488 	 47.685414 	 C 	 1  ala 	 1.000000 
5155 	 C 	 29.232773 	 41.510444 	 47.344530 	 C 	 1  ala 	 1.000000 
5156 	 C 	 29.651192 	 42.099782 	 46.653439 	 C 	 1  ala 	 1.000000 
5157 	 C 	 29.378321 	 42.139770 	 45.692220 	 C 	 1  ala 	 1.000000 
5158 	 C 	 30.098136 	 42.307971 	 46.365700 	 C 	 1  ala 	 1.000000 
5159 	 C 	 29.514928 	 43.040081 	 46.013730 	 C 	 1  ala 	 1.000000 
5160 	 C 	 29.826039 	 42.792309 	 45.096223 	 C 	 1  ala 	 1.000000 
5161 	 C 	 29.139490 	 42.862768 	 45.819884 	 C 	 1  ala 	 1.000000 
5162 	 C 	 28.342423 	 43.419059 	 46.054884 	 C 	 1  ala 	 1.000000 
5163 	 C 	 27.984318 	 42.598297 	 46.499980 	 C 	 1  ala 	 1.000000 
5164 	 C 	 28.220050 	 42.706846 	 47.465717 	 C 	 1  ala 	 1.000000 
5165 	 C 	 28.946539 	 43.173371 	 47.970263 	 C 	 1  ala 	 1.000000 
5166 	 C 	 29.683601 	 42.540073 	 48.206213 	 C 	 1  ala 	 1.000000 
5167 	 C 	 29.443606 	 43.427167 	 48.600504 	 C 	 1  ala 	 1.000000 
5168 	 C 	 29.615904 	 43.081620 	 49.522952 	 C 	 1  ala 	 1.000000 
5169 	 C 	 29.338246 	 43.997378 	 49.813281 	 C 	 1  ala 	 1.000000 
5170 	 C 	 30.009481 	 44.713149 	 49.620626 	 C 	 1  ala 	 1.000000 
5171 	 C 	 30.235101 	 45.494754 	 49.039087 	 C 	 1  ala 	 1.000000 
5172 	 C 	 30.412308 	 46.434160 	 48.745634 	 C 	 1  ala 	 1.000000 
5173 	 C 	 31.016020 	 47.001203 	 48.185282 	 C 	 1  ala 	 1.000000 
5174 	 C 	 30.618701 	 47.854752 	 47.848248 	 C 	 1  ala 	 1.000000 
5175 	 C 	 31.145772 	 47.779974 	 47.001723 	 C 	 1  ala 	 1.000000 
5176 	 C 	 31.864659 	 47.622861 	 46.324584 	 C 	 1  ala 	 1.000000 
5177 	 C 	 31.458325 	 46.891192 	 46.871898 	 C 	 1  ala 	 1.000000 
5178 	 C 	 31.186313 	 45.953712 	 47.089018 	 C 	 1  ala 	 1.000000 
5179 	 C 	 30.640180 	 45.489590 	 47.786392 	 C 	 1  ala 	 1.000000 
5180 	 C 	 30.576268 	 46.035893 	 48.621538 	 C 	 1  ala 	 1.000000 
5181 	 C 	 29.724098 	 46.556285 	 48.566772 	 C 	 1  ala 	 1.000000 
5182 	 C 	 30.629481 	 46.939080 	 48.750482 	 C 	 1  ala 	 1.000000 
5183 	 C 	 29.682933 	 46.999662 	 48.433660 	 C 	 1  ala 	 1.000000 
5184 	 C 	 28.869461 	 46.438048 	 48.282487 	 C 	 1  ala 	 1.000000 
5185 	 C 	 28.365748 	 46.109394 	 49.081399 	 C 	 1  ala 	 1.000000 
5186 	 C 	 29.064609 	 46.802226 	 48.903696 	 C 	 1  ala 	 1.000000 
5187 	 C 	 28.111472 	 46.735317 	 48.608648 	 C 	 1  ala 	 1.000000 
5188 	 C 	 27.619764 	 46.316256 	 49.371938 	 C 	 1  ala 	 1.000000 
5189 	 C 	 27.706073 	 46.380406 	 48.377737 	 C 	 1  ala 	 1.000000 
5190 	 C 	 27.325083 	 45.638626 	 47.825824 	 C 	 1  ala 	 1.000000 
5191 	 C 	 27.150506 	 46.356534 	 48.499716 	 C 	 1  ala 	 1.000000 
5192 	 C 	 26.940270 	 46.163959 	 49.458213 	 C 	 1  ala 	 1.000000 
5193 	 C 	 27.752540 	 46.720199 	 49.282671 	 C 	 1  ala 	 1.000000 
5194 	 C 	 28.317731 	 45.995962 	 48.887654 	 C 	 1  ala 	 1.000000 
5195 	 C 	 28.011301 	 46.671035 	 48.216553 	 C 	 1  ala 	 1.000000 
5196 	 C 	 28.394239 	 47.528392 	 47.872607 	 C 	 1  ala 	 1.000000 
5197 	 C 	 28.604100 	 47.631520 	 48.844884 	 C 	 1  ala 	 1.000000 
5198 	 C 	 28.708475 	 46.647730 	 48.990702 	 C 	 1  ala 	 1.000000 
5199 	 C 	 29.486597 	 46.019907 	 48.971598 	 C 	 1  ala 	 1.000000 
5200 	 C 	 29.855706 	 45.825178 	 49.880355 	 C 	 1  ala 	 1.000000 
5201 	 C 	 29.092619 	 46.008444 	 49.260586 	 C 	 1  ala 	 1.000000 
5202 	 C 	 29.366426 	 45.925007 	 48.302428 	 C 	 1  ala 	 1.000000 
5203 	 C 	 28.821448 	 46.649920 	 47.881120 	 C 	 1  ala 	 1.000000 
5204 	 C 	 28.438369 	 47.542513 	 48.118877 	 C 	 1  ala 	 1.000000 
5205 	 C 	 28.412785 	 48.420165 	 48.597493 	 C 	 1  ala 	 1.000000 
5206 	 C 	 27.750157 	 48.137916 	 47.903763 	 C 	 1  ala 	 1.000000 
5207 	 C 	 27.673684 	 48.113552 	 46.906989 	 C 	 1  ala 	 1.000000 
5208 	 C 	 28.092238 	 47.243487 	 47.167373 	 C 	 1  ala 	 1.000000 
5209 	 C 	 28.792737 	 46.534461 	 47.248514 	 C 	 1  ala 	 1.000000 
5210 	 C 	 28.420231 	 46.224692 	 48.123318 	 C 	 1  ala 	 1.000000 
5211 	 C 	 28.109825 	 46.416190 	 49.054434 	 C 	 1  ala 	 1.000000 
5212 	 C 	 28.254395 	 46.569897 	 50.031917 	 C 	 1  ala 	 1.000000 
5213 	 C 	 28.896952 	 46.777429 	 50.769515 	 C 	 1  ala 	 1.000000 
5214 	 C 	 28.915331 	 45.788478 	 50.916614 	 C 	 1  ala 	 1.000000 
5215 	 C 	 28.377759 	 44.954649 	 51.042091 	 C 	 1  ala 	 1.000000 
5216 	 C 	 28.825567 	 44.531845 	 51.829939 	 C 	 1  ala 	 1.000000 
5217 	 C 	 28.518943 	 44.351355 	 50.895378 	 C 	 1  ala 	 1.000000 
5218 	 C 	 28.067807 	 45.147351 	 50.491811 	 C 	 1  ala 	 1.000000 
5219 	 C 	 27.350105 	 45.218740 	 49.799130 	 C 	 1  ala 	 1.000000 
5220 	 C 	 27.177317 	 44.357221 	 49.321711 	 C 	 1  ala 	 1.000000 
5221 	 C 	 26.980197 	 43.519834 	 48.811880 	 C 	 1  ala 	 1.000000 
5222 	 C 	 26.708063 	 42.784102 	 48.191685 	 C 	 1  ala 	 1.000000 
5223 	 C 	 26.090182 	 42.669934 	 48.969624 	 C 	 1  ala 	 1.000000 
5224 	 C 	 26.904029 	 43.250944 	 48.960640 	 C 	 1  ala 	 1.000000 
5225 	 C 	 27.617248 	 42.586208 	 49.183005 	 C 	 1  ala 	 1.000000 
5226 	 C 	 27.351773 	 43.498755 	 48.871906 	 C 	 1  ala 	 1.000000 
5227 	 C 	 27.093765 	 42.533758 	 48.824865 	 C 	 1  ala 	 1.000000 
5228 	 C 	 27.735765 	 41.869930 	 48.441238 	 C 	 1  ala 	 1.000000 
5229 	 C 	 27.431171 	 41.169443 	 49.086637 	 C 	 1  ala 	 1.000000 
5230 	 C 	 27.015659 	 40.260325 	 49.057411 	 C 	 1  ala 	 1.000000 
5231 	 C 	 26.527717 	 40.259650 	 48.184535 	 C 	 1  ala 	 1.000000 
5232 	 C 	 25.577745 	 39.982645 	 48.328828 	 C 	 1  ala 	 1.000000 
5233 	 C 	 26.145775 	 40.352145 	 47.593429 	 C 	 1  ala 	 1.000000 
5234 	 C 	 26.475195 	 41.107733 	 47.027241 	 C 	 1  ala 	 1.000000 
5235 	 C 	 27.165823 	 41.269341 	 46.322319 	 C 	 1  ala 	 1.000000 
5236 	 C 	 27.583514 	 41.634989 	 47.154085 	 C 	 1  ala 	 1.000000 
5237 	 C 	 27.613504 	 41.670593 	 46.155169 	 C 	 1  ala 	 1.000000 
5238 	 C 	 26.739925 	 41.503469 	 45.698081 	 C 	 1  ala 	 1.000000 
5239 	 C 	 25.746382 	 41.589784 	 45.624446 	 C 	 1  ala 	 1.000000 
5240 	 C 	 26.729519 	 41.768473 	 45.585542 	 C 	 1  ala 	 1.000000 
5241 	 C 	 26.563580 	 41.247284 	 46.422696 	 C 	 1  ala 	 1.000000 
5242 	 C 	 26.762542 	 40.383112 	 45.960504 	 C 	 1  ala 	 1.000000 
5243 	 C 	 26.506628 	 40.506642 	 46.919279 	 C 	 1  ala 	 1.000000 
5244 	 C 	 27.261684 	 40.245019 	 47.520481 	 C 	 1  ala 	 1.000000 
5245 	 C 	 27.509378 	 40.125155 	 46.559086 	 C 	 1  ala 	 1.000000 
5246 	 C 	 27.165279 	 41.057755 	 46.667963 	 C 	 1  ala 	 1.000000 
5247 	 C 	 27.715085 	 41.358822 	 45.888815 	 C 	 1  ala 	 1.000000 
5248 	 C 	 27.149636 	 41.846156 	 46.554227 	 C 	 1  ala 	 1.000000 
5249 	 C 	 27.752877 	 41.248995 	 46.025550 	 C 	 1  ala 	 1.000000 
5250 	 C 	 26.760247 	 41.173197 	 45.931000 	 C 	 1  ala 	 1.000000 
5251 	 C 	 26.341219 	 42.055012 	 46.147378 	 C 	 1  ala 	 1.000000 
5252 	 C 	 25.968203 	 41.132199 	 46.051067 	 C 	 1  ala 	 1.000000 
5253 	 C 	 26.207898 	 40.808108 	 46.966224 	 C 	 1  ala 	 1.000000 
5254 	 C 	 26.409235 	 39.902630 	 47.339820 	 C 	 1  ala 	 1.000000 
5255 	 C 	 26.789255 	 40.812637 	 47.505565 	 C 	 1  ala 	 1.000000 
5256 	 C 	 27.560096 	 40.345555 	 47.938738 	 C 	 1  ala 	 1.000000 
5257 	 C 	 28.281445 	 40.377861 	 47.246921 	 C 	 1  ala 	 1.000000 
5258 	 C 	 27.999212 	 40.843440 	 46.408124 	 C 	 1  ala 	 1.000000 
5259 	 C 	 28.503043 	 40.003389 	 46.609294 	 C 	 1  ala 	 1.000000 
5260 	 C 	 29.264126 	 40.644172 	 46.508555 	 C 	 1  ala 	 1.000000 
5261 	 C 	 28.518185 	 41.223254 	 46.837546 	 C 	 1  ala 	 1.000000 
5262 	 C 	 29.085263 	 40.419944 	 47.019520 	 C 	 1  ala 	 1.000000 
5263 	 C 	 28.231912 	 40.725491 	 46.597108 	 C 	 1  ala 	 1.000000 
5264 	 C 	 28.723811 	 41.273059 	 47.274016 	 C 	 1  ala 	 1.000000 
5265 	 C 	 28.685829 	 42.270769 	 47.329977 	 C 	 1  ala 	 1.000000 
5266 	 C 	 29.339858 	 41.518580 	 47.249621 	 C 	 1  ala 	 1.000000 
5267 	 C 	 28.424207 	 41.436152 	 46.856189 	 C 	 1  ala 	 1.000000 
5268 	 C 	 28.805201 	 40.542911 	 46.617521 	 C 	 1  ala 	 1.000000 
5269 	 C 	 28.738045 	 41.513487 	 46.848761 	 C 	 1  ala 	 1.000000 
5270 	 C 	 29.308593 	 40.692600 	 46.823870 	 C 	 1  ala 	 1.000000 
5271 	 C 	 28.716038 	 41.307214 	 47.344569 	 C 	 1  ala 	 1.000000 
5272 	 C 	 29.289834 	 40.611429 	 47.776588 	 C 	 1  ala 	 1.000000 
5273 	 C 	 30.153264 	 40.240736 	 48.118752 	 C 	 1  ala 	 1.000000 
5274 	 C 	 30.047698 	 39.481844 	 47.476149 	 C 	 1  ala 	 1.000000 
5275 	 C 	 30.772829 	 40.169286 	 47.436039 	 C 	 1  ala 	 1.000000 
5276 	 C 	 30.306806 	 40.466974 	 46.602850 	 C 	 1  ala 	 1.000000 
5277 	 C 	 30.502375 	 40.803519 	 47.523985 	 C 	 1  ala 	 1.000000 
5278 	 C 	 31.369217 	 40.491910 	 47.913196 	 C 	 1  ala 	 1.000000 
5279 	 C 	 30.701201 	 39.772629 	 47.722436 	 C 	 1  ala 	 1.000000 
5280 	 C 	 29.770815 	 39.496487 	 47.481339 	 C 	 1  ala 	 1.000000 
5281 	 C 	 29.176256 	 39.197017 	 46.735138 	 C 	 1  ala 	 1.000000 
5282 	 C 	 29.095438 	 38.385504 	 46.156419 	 C 	 1  ala 	 1.000000 
5283 	 C 	 28.269813 	 37.978015 	 46.546671 	 C 	 1  ala 	 1.000000 
5284 	 C 	 27.342318 	 38.267838 	 46.310545 	 C 	 1  ala 	 1.000000 
5285 	 C 	 27.766760 	 37.987641 	 47.171556 	 C 	 1  ala 	 1.000000 
5286 	 C 	 28.272499 	 37.391058 	 47.794706 	 C 	 1  ala 	 1.000000 
5287 	 C 	 27.611473 	 37.368727 	 48.544736 	 C 	 1  ala 	 1.000000 
5288 	 C 	 27.122454 	 36.774563 	 47.906120 	 C 	 1  ala 	 1.000000 
5289 	 C 	 27.123476 	 37.555948 	 47.282072 	 C 	 1  ala 	 1.000000 
5290 	 C 	 26.433204 	 36.925192 	 46.927569 	 C 	 1  ala 	 1.000000 
5291 	 C 	 26.314157 	 37.128548 	 47.899409 	 C 	 1  ala 	 1.000000 
5292 	 C 	 25.438644 	 36.727805 	 48.169374 	 C 	 1  ala 	 1.000000 
5293 	 C 	 26.388015 	 36.764518 	 47.857369 	 C 	 1  ala 	 1.000000 
5294 	 C 	 26.881394 	 36.224794 	 47.175258 	 C 	 1  ala 	 1.000000 
5295 	 C 	 26.413171 	 36.466682 	 48.025115 	 C 	 1  ala 	 1.000000 
5296 	 C 	 26.411298 	 36.421914 	 47.026119 	 C 	 1  ala 	 1.000000 
5297 	 C 	 27.123301 	 36.892551 	 47.547226 	 C 	 1  ala 	 1.000000 
5298 	 C 	 28.084209 	 36.954433 	 47.817090 	 C 	 1  ala 	 1.000000 
5299 	 C 	 28.417317 	 36.703995 	 46.908068 	 C 	 1  ala 	 1.000000 
5300 	 C 	 28.120844 	 36.978308 	 45.993270 	 C 	 1  ala 	 1.000000 
5301 	 C 	 28.181610 	 37.721581 	 45.327047 	 C 	 1  ala 	 1.000000 
5302 	 C 	 28.433464 	 37.943212 	 46.269092 	 C 	 1  ala 	 1.000000 
5303 	 C 	 28.553455 	 38.519200 	 47.077696 	 C 	 1  ala 	 1.000000 
5304 	 C 	 28.747986 	 39.232402 	 46.404271 	 C 	 1  ala 	 1.000000 
5305 	 C 	 28.708452 	 39.002220 	 47.376615 	 C 	 1  ala 	 1.000000 
5306 	 C 	 29.636033 	 39.254606 	 47.652107 	 C 	 1  ala 	 1.000000 
5307 	 C 	 28.800709 	 39.621850 	 48.061211 	 C 	 1  ala 	 1.000000 
5308 	 C 	 29.730596 	 39.978738 	 47.972098 	 C 	 1  ala 	 1.000000 
5309 	 C 	 29.264049 	 40.014945 	 47.088343 	 C 	 1  ala 	 1.000000 
5310 	 C 	 30.208041 	 39.726186 	 46.928662 	 C 	 1  ala 	 1.000000 
5311 	 C 	 29.445171 	 40.209355 	 47.358286 	 C 	 1  ala 	 1.000000 
5312 	 C 	 29.607732 	 40.780946 	 48.162560 	 C 	 1  ala 	 1.000000 
5313 	 C 	 28.735983 	 40.436779 	 47.813845 	 C 	 1  ala 	 1.000000 
5314 	 C 	 28.892131 	 39.850715 	 47.018769 	 C 	 1  ala 	 1.000000 
5315 	 C 	 28.212873 	 39.180363 	 47.317494 	 C 	 1  ala 	 1.000000 
5316 	 C 	 27.714951 	 38.402958 	 47.701832 	 C 	 1  ala 	 1.000000 
5317 	 C 	 28.474190 	 38.601448 	 47.082028 	 C 	 1  ala 	 1.000000 
5318 	 C 	 28.448273 	 38.827977 	 46.108368 	 C 	 1  ala 	 1.000000 
5319 	 C 	 28.317964 	 37.945818 	 46.560933 	 C 	 1  ala 	 1.000000 
5320 	 C 	 28.163190 	 38.923809 	 46.700859 	 C 	 1  ala 	 1.000000 
5321 	 C 	 28.112110 	 38.771332 	 47.687845 	 C 	 1  ala 	 1.000000 
5322 	 C 	 27.864448 	 37.842800 	 47.964416 	 C 	 1  ala 	 1.000000 
5323 	 C 	 27.935050 	 38.725306 	 48.429386 	 C 	 1  ala 	 1.000000 
5324 	 C 	 27.907924 	 39.473528 	 47.766492 	 C 	 1  ala 	 1.000000 
5325 	 C 	 27.623681 	 39.122630 	 48.658723 	 C 	 1  ala 	 1.000000 
5326 	 C 	 27.439711 	 39.479845 	 47.742998 	 C 	 1  ala 	 1.000000 
5327 	 C 	 27.995170 	 39.585328 	 46.918172 	 C 	 1  ala 	 1.000000 
5328 	 C 	 27.642745 	 40.308401 	 47.512278 	 C 	 1  ala 	 1.000000 
5329 	 C 	 28.242511 	 40.934047 	 48.011125 	 C 	 1  ala 	 1.000000 
5330 	 C 	 29.187747 	 40.610999 	 47.964560 	 C 	 1  ala 	 1.000000 
5331 	 C 	 30.005596 	 41.155011 	 48.152112 	 C 	 1  ala 	 1.000000 
5332 	 C 	 29.722576 	 41.271472 	 49.104129 	 C 	 1  ala 	 1.000000 
5333 	 C 	 30.616377 	 41.586885 	 48.785329 	 C 	 1  ala 	 1.000000 
5334 	 C 	 30.851057 	 42.489346 	 49.146563 	 C 	 1  ala 	 1.000000 
5335 	 C 	 30.363381 	 43.350579 	 49.289561 	 C 	 1  ala 	 1.000000 
5336 	 C 	 30.375343 	 44.088737 	 48.615039 	 C 	 1  ala 	 1.000000 
5337 	 C 	 29.527875 	 43.568122 	 48.718758 	 C 	 1  ala 	 1.000000 
5338 	 C 	 29.470496 	 44.387734 	 49.288796 	 C 	 1  ala 	 1.000000 
5339 	 C 	 29.076064 	 44.783130 	 48.459287 	 C 	 1  ala 	 1.000000 
5340 	 C 	 29.648190 	 44.078156 	 48.040141 	 C 	 1  ala 	 1.000000 
5341 	 C 	 30.471853 	 43.986459 	 48.599757 	 C 	 1  ala 	 1.000000 
5342 	 C 	 29.498075 	 44.172982 	 48.730009 	 C 	 1  ala 	 1.000000 
5343 	 C 	 28.921191 	 43.891403 	 47.963251 	 C 	 1  ala 	 1.000000 
5344 	 C 	 29.462162 	 44.445962 	 48.595560 	 C 	 1  ala 	 1.000000 
5345 	 C 	 28.947851 	 43.634396 	 48.318351 	 C 	 1  ala 	 1.000000 
5346 	 C 	 28.313230 	 43.056396 	 47.805349 	 C 	 1  ala 	 1.000000 
5347 	 C 	 27.638949 	 42.536449 	 47.280944 	 C 	 1  ala 	 1.000000 
5348 	 C 	 26.675883 	 42.579170 	 47.015088 	 C 	 1  ala 	 1.000000 
5349 	 C 	 26.749157 	 41.858555 	 47.704542 	 C 	 1  ala 	 1.000000 
5350 	 C 	 27.327043 	 41.047968 	 47.799383 	 C 	 1  ala 	 1.000000 
5351 	 C 	 27.706978 	 40.191747 	 48.149433 	 C 	 1  ala 	 1.000000 
5352 	 C 	 28.358413 	 39.650519 	 47.617733 	 C 	 1  ala 	 1.000000 
5353 	 C 	 29.293238 	 39.931625 	 47.400749 	 C 	 1  ala 	 1.000000 
5354 	 C 	 28.981373 	 40.479671 	 46.624614 	 C 	 1  ala 	 1.000000 
5355 	 C 	 29.765768 	 40.877907 	 47.100147 	 C 	 1  ala 	 1.000000 
5356 	 C 	 30.281928 	 40.525735 	 47.880887 	 C 	 1  ala 	 1.000000 
5357 	 C 	 29.918522 	 41.428957 	 48.109197 	 C 	 1  ala 	 1.000000 
5358 	 C 	 29.680455 	 41.292267 	 47.147615 	 C 	 1  ala 	 1.000000 
5359 	 C 	 29.490072 	 40.579295 	 46.472764 	 C 	 1  ala 	 1.000000 
5360 	 C 	 30.449278 	 40.329666 	 46.605461 	 C 	 1  ala 	 1.000000 
5361 	 C 	 31.385822 	 40.679995 	 46.617946 	 C 	 1  ala 	 1.000000 
5362 	 C 	 31.657489 	 41.069349 	 45.737832 	 C 	 1  ala 	 1.000000 
5363 	 C 	 31.575361 	 41.486568 	 44.832745 	 C 	 1  ala 	 1.000000 
5364 	 C 	 31.975282 	 42.396695 	 44.724427 	 C 	 1  ala 	 1.000000 
5365 	 C 	 31.962182 	 43.384132 	 44.566959 	 C 	 1  ala 	 1.000000 
5366 	 C 	 32.290379 	 43.696357 	 45.458475 	 C 	 1  ala 	 1.000000 
5367 	 C 	 31.852747 	 44.378290 	 44.872433 	 C 	 1  ala 	 1.000000 
5368 	 C 	 31.693951 	 44.318157 	 45.857911 	 C 	 1  ala 	 1.000000 
5369 	 C 	 30.718371 	 44.439420 	 46.041046 	 C 	 1  ala 	 1.000000 
5370 	 C 	 30.928508 	 44.236071 	 46.997337 	 C 	 1  ala 	 1.000000 
5371 	 C 	 29.930904 	 44.304642 	 47.006589 	 C 	 1  ala 	 1.000000 
5372 	 C 	 29.393219 	 45.102889 	 47.278059 	 C 	 1  ala 	 1.000000 
5373 	 C 	 29.940131 	 45.557748 	 47.980903 	 C 	 1  ala 	 1.000000 
5374 	 C 	 30.414114 	 45.129100 	 47.211748 	 C 	 1  ala 	 1.000000 
5375 	 C 	 31.253310 	 44.840109 	 46.751058 	 C 	 1  ala 	 1.000000 
5376 	 C 	 30.417794 	 44.583091 	 47.236707 	 C 	 1  ala 	 1.000000 
5377 	 C 	 29.593096 	 45.148612 	 47.229101 	 C 	 1  ala 	 1.000000 
5378 	 C 	 28.950921 	 44.908560 	 47.957102 	 C 	 1  ala 	 1.000000 
5379 	 C 	 28.891052 	 43.974747 	 48.309818 	 C 	 1  ala 	 1.000000 
5380 	 C 	 28.512541 	 43.785015 	 49.215760 	 C 	 1  ala 	 1.000000 
5381 	 C 	 29.354621 	 43.288156 	 49.425603 	 C 	 1  ala 	 1.000000 
5382 	 C 	 29.833117 	 43.531359 	 50.269341 	 C 	 1  ala 	 1.000000 
5383 	 C 	 29.391887 	 42.634211 	 50.248316 	 C 	 1  ala 	 1.000000 
5384 	 C 	 30.037176 	 43.050313 	 49.607643 	 C 	 1  ala 	 1.000000 
5385 	 C 	 29.084082 	 42.786638 	 49.459025 	 C 	 1  ala 	 1.000000 
5386 	 C 	 29.642055 	 43.551809 	 49.780240 	 C 	 1  ala 	 1.000000 
5387 	 C 	 28.723268 	 43.793594 	 50.092284 	 C 	 1  ala 	 1.000000 
5388 	 C 	 28.946102 	 44.055025 	 49.153136 	 C 	 1  ala 	 1.000000 
5389 	 C 	 28.768096 	 44.172275 	 50.130155 	 C 	 1  ala 	 1.000000 
5390 	 C 	 29.420983 	 43.464981 	 50.401218 	 C 	 1  ala 	 1.000000 
5391 	 C 	 29.584123 	 43.872976 	 49.502927 	 C 	 1  ala 	 1.000000 
5392 	 C 	 30.267385 	 44.601653 	 49.456213 	 C 	 1  ala 	 1.000000 
5393 	 C 	 29.361738 	 44.242231 	 49.681199 	 C 	 1  ala 	 1.000000 
5394 	 C 	 29.383861 	 44.379415 	 48.690900 	 C 	 1  ala 	 1.000000 
5395 	 C 	 29.237572 	 43.911399 	 47.819373 	 C 	 1  ala 	 1.000000 
5396 	 C 	 30.058790 	 44.343434 	 47.446617 	 C 	 1  ala 	 1.000000 
5397 	 C 	 29.497773 	 43.600910 	 47.080667 	 C 	 1  ala 	 1.000000 
5398 	 C 	 30.040121 	 43.935288 	 46.309920 	 C 	 1  ala 	 1.000000 
5399 	 C 	 30.309447 	 44.429279 	 47.136623 	 C 	 1  ala 	 1.000000 
5400 	 C 	 29.941348 	 45.358979 	 47.123973 	 C 	 1  ala 	 1.000000 
5401 	 C 	 30.279358 	 45.769382 	 46.277026 	 C 	 1  ala 	 1.000000 
5402 	 C 	 30.905530 	 45.057984 	 45.957931 	 C 	 1  ala 	 1.000000 
5403 	 C 	 30.546588 	 45.511816 	 45.142334 	 C 	 1  ala 	 1.000000 
5404 	 C 	 30.830114 	 44.554009 	 45.189450 	 C 	 1  ala 	 1.000000 
5405 	 C 	 29.837577 	 44.435325 	 45.217454 	 C 	 1  ala 	 1.000000 
5406 	 C 	 29.823095 	 44.115812 	 46.164925 	 C 	 1  ala 	 1.000000 
5407 	 C 	 29.790823 	 43.921409 	 47.145316 	 C 	 1  ala 	 1.000000 
5408 	 C 	 29.586996 	 44.647082 	 47.802470 	 C 	 1  ala 	 1.000000 
5409 	 C 	 29.971167 	 44.396523 	 46.913858 	 C 	 1  ala 	 1.000000 
5410 	 C 	 29.899944 	 45.351221 	 46.624931 	 C 	 1  ala 	 1.000000 
5411 	 C 	 30.052400 	 45.986954 	 47.381635 	 C 	 1  ala 	 1.000000 
5412 	 C 	 29.548637 	 45.338085 	 46.811379 	 C 	 1  ala 	 1.000000 
5413 	 C 	 29.201539 	 45.774698 	 47.641374 	 C 	 1  ala 	 1.000000 
5414 	 C 	 28.565764 	 45.497545 	 48.361774 	 C 	 1  ala 	 1.000000 
5415 	 C 	 28.372487 	 46.473364 	 48.463857 	 C 	 1  ala 	 1.000000 
5416 	 C 	 27.920889 	 47.364342 	 48.510948 	 C 	 1  ala 	 1.000000 
5417 	 C 	 27.567494 	 48.187420 	 48.066365 	 C 	 1  ala 	 1.000000 
5418 	 C 	 28.377256 	 48.735862 	 47.857803 	 C 	 1  ala 	 1.000000 
5419 	 C 	 27.710805 	 48.536935 	 48.576323 	 C 	 1  ala 	 1.000000 
5420 	 C 	 28.093031 	 48.174443 	 47.726321 	 C 	 1  ala 	 1.000000 
5421 	 C 	 27.536284 	 47.351872 	 47.842120 	 C 	 1  ala 	 1.000000 
5422 	 C 	 27.900659 	 46.484383 	 47.503455 	 C 	 1  ala 	 1.000000 
5423 	 C 	 27.246338 	 45.750748 	 47.320038 	 C 	 1  ala 	 1.000000 
5424 	 C 	 27.752412 	 45.928739 	 46.476114 	 C 	 1  ala 	 1.000000 
5425 	 C 	 28.218763 	 46.090508 	 45.606432 	 C 	 1  ala 	 1.000000 
5426 	 C 	 28.205291 	 46.080180 	 44.606576 	 C 	 1  ala 	 1.000000 
5427 	 C 	 28.058445 	 47.027696 	 44.890567 	 C 	 1  ala 	 1.000000 
5428 	 C 	 27.824037 	 46.358132 	 45.595363 	 C 	 1  ala 	 1.000000 
5429 	 C 	 27.146135 	 45.916322 	 45.007780 	 C 	 1  ala 	 1.000000 
5430 	 C 	 27.680091 	 45.070818 	 45.011538 	 C 	 1  ala 	 1.000000 
5431 	 C 	 27.693970 	 44.662265 	 45.924167 	 C 	 1  ala 	 1.000000 
5432 	 C 	 27.466956 	 44.537610 	 46.890048 	 C 	 1  ala 	 1.000000 
5433 	 C 	 27.698970 	 43.596855 	 47.137330 	 C 	 1  ala 	 1.000000 
5434 	 C 	 27.933553 	 43.338173 	 48.074375 	 C 	 1  ala 	 1.000000 
5435 	 C 	 28.905900 	 43.571709 	 48.075647 	 C 	 1  ala 	 1.000000 
5436 	 C 	 28.983785 	 43.093251 	 47.200998 	 C 	 1  ala 	 1.000000 
5437 	 C 	 28.106277 	 43.570764 	 47.156719 	 C 	 1  ala 	 1.000000 
5438 	 C 	 27.983788 	 42.625434 	 46.854481 	 C 	 1  ala 	 1.000000 
5439 	 C 	 28.103650 	 43.290985 	 46.117816 	 C 	 1  ala 	 1.000000 
5440 	 C 	 27.366147 	 43.825012 	 46.531222 	 C 	 1  ala 	 1.000000 
5441 	 C 	 27.063444 	 43.044752 	 47.078547 	 C 	 1  ala 	 1.000000 
5442 	 C 	 26.376316 	 43.700666 	 47.391007 	 C 	 1  ala 	 1.000000 
5443 	 C 	 26.777200 	 42.850592 	 47.049443 	 C 	 1  ala 	 1.000000 
5444 	 C 	 26.937625 	 42.464210 	 46.141163 	 C 	 1  ala 	 1.000000 
5445 	 C 	 27.804897 	 42.445657 	 46.638651 	 C 	 1  ala 	 1.000000 
5446 	 C 	 27.680911 	 43.426392 	 46.487698 	 C 	 1  ala 	 1.000000 
5447 	 C 	 27.420050 	 42.605100 	 45.980320 	 C 	 1  ala 	 1.000000 
5448 	 C 	 27.129202 	 42.375459 	 46.909121 	 C 	 1  ala 	 1.000000 
5449 	 C 	 27.581045 	 41.555785 	 46.557023 	 C 	 1  ala 	 1.000000 
5450 	 O 	 27.338887 	 41.043994 	 47.381299 	 O 	 1  ala 	 1.000000 
5451 	 C 	 26.556162 	 40.895253 	 46.776966 	 C 	 1  ala 	 1.000000 
5452 	 C 	 25.626949 	 41.093793 	 47.088649 	 C 	 1  ala 	 1.000000 
5453 	 C 	 25.362824 	 40.742893 	 47.987040 	 C 	 1  ala 	 1.000000 
5454 	 C 	 24.494090 	 40.425792 	 48.367499 	 C 	 1  ala 	 1.000000 
5455 	 C 	 24.021398 	 41.210396 	 48.768693 	 C 	 1  ala 	 1.000000 
5456 	 C 	 23.194395 	 40.869037 	 48.321994 	 C 	 1  ala 	 1.000000 
5457 	 C 	 23.931076 	 40.631360 	 48.955091 	 C 	 1  ala 	 1.000000 
5458 	 C 	 23.456176 	 39.945807 	 48.403287 	 C 	 1  ala 	 1.000000 
5459 	 C 	 23.761758 	 39.802415 	 49.344594 	 C 	 1  ala 	 1.000000 
5460 	 C 	 23.491860 	 40.256667 	 50.193600 	 C 	 1  ala 	 1.000000 
5461 	 C 	 24.299286 	 39.686164 	 50.343902 	 C 	 1  ala 	 1.000000 
5462 	 C 	 24.858311 	 39.184636 	 49.683629 	 C 	 1  ala 	 1.000000 
5463 	 C 	 24.771244 	 39.418603 	 50.651967 	 C 	 1  ala 	 1.000000 
5464 	 C 	 23.910832 	 39.743120 	 51.044878 	 C 	 1  ala 	 1.000000 
5465 	 C 	 24.280823 	 38.915656 	 50.622493 	 C 	 1  ala 	 1.000000 
5466 	 C 	 24.925065 	 39.618286 	 50.924591 	 C 	 1  ala 	 1.000000 
5467 	 C 	 23.948134 	 39.812204 	 51.014038 	 C 	 1  ala 	 1.000000 
5468 	 C 	 23.481059 	 39.670221 	 50.141294 	 C 	 1  ala 	 1.000000 
5469 	 C 	 24.309981 	 39.719930 	 49.584143 	 C 	 1  ala 	 1.000000 
5470 	 C 	 24.126788 	 39.270790 	 48.709664 	 C 	 1  ala 	 1.000000 
5471 	 C 	 24.888254 	 39.839534 	 49.020632 	 C 	 1  ala 	 1.000000 
5472 	 C 	 24.269428 	 39.388210 	 48.377700 	 C 	 1  ala 	 1.000000 
5473 	 C 	 23.797381 	 40.233518 	 48.127447 	 C 	 1  ala 	 1.000000 
5474 	 C 	 23.312993 	 41.108180 	 48.145771 	 C 	 1  ala 	 1.000000 
5475 	 C 	 22.965932 	 41.094309 	 47.208031 	 C 	 1  ala 	 1.000000 
5476 	 C 	 22.090938 	 41.344915 	 46.793808 	 C 	 1  ala 	 1.000000 
5477 	 C 	 22.229749 	 40.805747 	 45.963128 	 C 	 1  ala 	 1.000000 
5478 	 C 	 22.656969 	 41.614877 	 46.366603 	 C 	 1  ala 	 1.000000 
5479 	 C 	 22.930625 	 40.851844 	 46.952174 	 C 	 1  ala 	 1.000000 
5480 	 C 	 22.925952 	 40.770739 	 45.955480 	 C 	 1  ala 	 1.000000 
5481 	 C 	 22.079630 	 41.129765 	 45.561983 	 C 	 1  ala 	 1.000000 
5482 	 C 	 21.833946 	 42.096340 	 45.635281 	 C 	 1  ala 	 1.000000 
5483 	 C 	 21.666826 	 42.080792 	 46.621095 	 C 	 1  ala 	 1.000000 
5484 	 C 	 21.363132 	 41.757041 	 47.517173 	 C 	 1  ala 	 1.000000 
5485 	 C 	 21.378100 	 41.003770 	 46.859632 	 C 	 1  ala 	 1.000000 
5486 	 C 	 20.515829 	 41.488420 	 46.712656 	 C 	 1  ala 	 1.000000 
5487 	 C 	 19.803747 	 41.925729 	 47.261928 	 C 	 1  ala 	 1.000000 
5488 	 C 	 19.364744 	 42.174390 	 48.125319 	 C 	 1  ala 	 1.000000 
5489 	 C 	 18.521929 	 42.705227 	 48.036573 	 C 	 1  ala 	 1.000000 
5490 	 C 	 19.126243 	 43.309932 	 47.517790 	 C 	 1  ala 	 1.000000 
5491 	 C 	 20.034123 	 43.429819 	 47.116068 	 C 	 1  ala 	 1.000000 
5492 	 C 	 19.090804 	 43.281591 	 47.413015 	 C 	 1  ala 	 1.000000 
5493 	 C 	 18.581908 	 42.427985 	 47.301739 	 C 	 1  ala 	 1.000000 
5494 	 C 	 18.517863 	 41.755025 	 46.564838 	 C 	 1  ala 	 1.000000 
5495 	 C 	 19.163425 	 41.996741 	 45.840392 	 C 	 1  ala 	 1.000000 
5496 	 C 	 19.853515 	 42.345459 	 46.474563 	 C 	 1  ala 	 1.000000 
5497 	 C 	 19.777955 	 43.020972 	 45.741096 	 C 	 1  ala 	 1.000000 
5498 	 C 	 19.074129 	 42.385612 	 45.423374 	 C 	 1  ala 	 1.000000 
5499 	 C 	 18.348752 	 42.986689 	 45.758837 	 C 	 1  ala 	 1.000000 
5500 	 C 	 19.028071 	 42.991858 	 46.492662 	 C 	 1  ala 	 1.000000 
5501 	 C 	 19.467459 	 43.712366 	 47.029138 	 C 	 1  ala 	 1.000000 
5502 	 C 	 19.955264 	 42.839414 	 47.028106 	 C 	 1  ala 	 1.000000 
5503 	 C 	 19.402586 	 42.747327 	 46.199814 	 C 	 1  ala 	 1.000000 
5504 	 C 	 19.815813 	 41.989592 	 46.704870 	 C 	 1  ala 	 1.000000 
5505 	 C 	 18.846068 	 42.225056 	 46.640440 	 C 	 1  ala 	 1.000000 
5506 	 C 	 19.029802 	 43.019450 	 47.219388 	 C 	 1  ala 	 1.000000 
5507 	 C 	 18.684291 	 43.957854 	 47.223949 	 C 	 1  ala 	 1.000000 
5508 	 C 	 18.846122 	 42.984216 	 47.063204 	 C 	 1  ala 	 1.000000 
5509 	 C 	 18.400019 	 42.612360 	 47.877278 	 C 	 1  ala 	 1.000000 
5510 	 C 	 18.016501 	 41.711914 	 48.082487 	 C 	 1  ala 	 1.000000 
5511 	 C 	 17.481079 	 42.473268 	 47.716888 	 C 	 1  ala 	 1.000000 
5512 	 C 	 17.930006 	 41.825581 	 47.101285 	 C 	 1  ala 	 1.000000 
5513 	 C 	 17.132584 	 42.050720 	 47.661135 	 C 	 1  ala 	 1.000000 
5514 	 C 	 16.471489 	 41.376516 	 47.331893 	 C 	 1  ala 	 1.000000 
5515 	 C 	 16.089751 	 42.179435 	 46.874075 	 C 	 1  ala 	 1.000000 
5516 	 C 	 16.111630 	 42.669548 	 47.745459 	 C 	 1  ala 	 1.000000 
5517 	 C 	 16.763417 	 42.183816 	 48.327900 	 C 	 1  ala 	 1.000000 
5518 	 C 	 15.869147 	 42.588063 	 48.519903 	 C 	 1  ala 	 1.000000 
5519 	 C 	 15.223144 	 43.208453 	 48.075162 	 C 	 1  ala 	 1.000000 
5520 	 C 	 15.915003 	 43.614451 	 47.478089 	 C 	 1  ala 	 1.000000 
5521 	 C 	 15.673644 	 42.776633 	 46.988389 	 C 	 1  ala 	 1.000000 
5522 	 C 	 15.695883 	 43.298181 	 47.841321 	 C 	 1  ala 	 1.000000 
5523 	 C 	 16.093259 	 42.451022 	 47.488597 	 C 	 1  ala 	 1.000000 
5524 	 C 	 16.973244 	 42.610138 	 47.041039 	 C 	 1  ala 	 1.000000 
5525 	 C 	 16.664678 	 41.901127 	 46.406933 	 C 	 1  ala 	 1.000000 
5526 	 C 	 17.098929 	 41.848170 	 47.306167 	 C 	 1  ala 	 1.000000 
5527 	 C 	 17.392334 	 41.788344 	 48.260281 	 C 	 1  ala 	 1.000000 
5528 	 C 	 17.912960 	 42.155518 	 47.489482 	 C 	 1  ala 	 1.000000 
5529 	 C 	 16.936038 	 41.968775 	 47.593164 	 C 	 1  ala 	 1.000000 
5530 	 C 	 16.663000 	 42.812469 	 48.055365 	 C 	 1  ala 	 1.000000 
5531 	 C 	 16.533440 	 41.877916 	 48.386763 	 C 	 1  ala 	 1.000000 
5532 	 C 	 16.007640 	 41.248271 	 47.814852 	 C 	 1  ala 	 1.000000 
5533 	 C 	 15.434326 	 41.056846 	 47.018192 	 C 	 1  ala 	 1.000000 
5534 	 C 	 14.641649 	 41.493666 	 46.592926 	 C 	 1  ala 	 1.000000 
5535 	 C 	 14.152241 	 41.368473 	 47.455948 	 C 	 1  ala 	 1.000000 
5536 	 C 	 14.254818 	 41.779568 	 48.361751 	 C 	 1  ala 	 1.000000 
5537 	 C 	 14.613880 	 42.380887 	 49.075536 	 C 	 1  ala 	 1.000000 
5538 	 C 	 14.813575 	 41.401428 	 49.103524 	 C 	 1  ala 	 1.000000 
5539 	 C 	 14.124086 	 41.917220 	 49.612016 	 C 	 1  ala 	 1.000000 
5540 	 C 	 14.383303 	 42.002413 	 50.574071 	 C 	 1  ala 	 1.000000 
5541 	 C 	 14.474402 	 42.552457 	 51.404223 	 C 	 1  ala 	 1.000000 
5542 	 C 	 15.379111 	 42.165072 	 51.226922 	 C 	 1  ala 	 1.000000 
5543 	 C 	 15.378366 	 42.930116 	 51.870899 	 C 	 1  ala 	 1.000000 
5544 	 C 	 15.983874 	 43.499868 	 52.426546 	 C 	 1  ala 	 1.000000 
5545 	 C 	 16.667723 	 43.140746 	 53.061669 	 C 	 1  ala 	 1.000000 
5546 	 C 	 16.199713 	 43.462105 	 52.238447 	 C 	 1  ala 	 1.000000 
5547 	 C 	 16.087891 	 42.476681 	 52.110246 	 C 	 1  ala 	 1.000000 
5548 	 C 	 16.765966 	 43.092588 	 52.511334 	 C 	 1  ala 	 1.000000 
5549 	 C 	 16.594242 	 42.113126 	 52.616991 	 C 	 1  ala 	 1.000000 
5550 	 N 	 16.200178 	 41.886068 	 51.726396 	 N 	 1  ala 	 1.000000 
5551 	 C 	 16.312861 	 42.822792 	 52.057834 	 C 	 1  ala 	 1.000000 
5552 	 C 	 15.593755 	 43.467158 	 51.797681 	 C 	 1  ala 	 1.000000 
5553 	 C 	 14.958546 	 44.091634 	 51.343215 	 C 	 1  ala 	 1.000000 
5554 	 C 	 14.753588 	 44.854206 	 51.956791 	 C 	 1  ala 	 1.000000 
5555 	 C 	 14.123397 	 45.520235 	 51.557713 	 C 	 1  ala 	 1.000000 
5556 	 C 	 14.455480 	 46.316119 	 52.063964 	 C 	 1  ala 	 1.000000 
5557 	 C 	 15.429776 	 46.472376 	 51.901696 	 C 	 1  ala 	 1.000000 
5558 	 C 	 16.074525 	 47.224951 	 52.035599 	 C 	 1  ala 	 1.000000 
5559 	 C 	 16.772790 	 46.811123 	 52.619699 	 C 	 1  ala 	 1.000000 
5560 	 C 	 17.466271 	 46.097805 	 52.721000 	 C 	 1  ala 	 1.000000 
5561 	 C 	 17.781699 	 45.148870 	 52.715754 	 C 	 1  ala 	 1.000000 
5562 	 C 	 17.091771 	 45.544287 	 53.322092 	 C 	 1  ala 	 1.000000 
5563 	 C 	 16.789510 	 46.447791 	 53.018253 	 C 	 1  ala 	 1.000000 
5564 	 C 	 16.625656 	 45.488720 	 53.249197 	 C 	 1  ala 	 1.000000 
5565 	 C 	 16.069748 	 46.263585 	 52.948280 	 C 	 1  ala 	 1.000000 
5566 	 C 	 16.013586 	 46.227020 	 51.950528 	 C 	 1  ala 	 1.000000 
5567 	 C 	 15.990874 	 46.226496 	 50.950786 	 C 	 1  ala 	 1.000000 
5568 	 C 	 15.121076 	 45.745339 	 50.841518 	 C 	 1  ala 	 1.000000 
5569 	 C 	 15.505957 	 46.255034 	 51.610984 	 C 	 1  ala 	 1.000000 
5570 	 C 	 14.968381 	 47.071816 	 51.820458 	 C 	 1  ala 	 1.000000 
5571 	 C 	 14.714047 	 46.574610 	 50.990940 	 C 	 1  ala 	 1.000000 
5572 	 C 	 15.560226 	 46.542299 	 51.522859 	 C 	 1  ala 	 1.000000 
5573 	 C 	 14.846638 	 47.137684 	 51.892057 	 C 	 1  ala 	 1.000000 
5574 	 C 	 14.443525 	 46.868439 	 51.017410 	 C 	 1  ala 	 1.000000 
5575 	 C 	 13.766366 	 46.879313 	 50.281654 	 C 	 1  ala 	 1.000000 
5576 	 C 	 14.228513 	 46.150600 	 49.776284 	 C 	 1  ala 	 1.000000 
5577 	 C 	 13.647293 	 46.417379 	 49.007511 	 C 	 1  ala 	 1.000000 
5578 	 C 	 12.710456 	 46.464929 	 48.660991 	 C 	 1  ala 	 1.000000 
5579 	 C 	 12.991447 	 45.601784 	 48.241438 	 C 	 1  ala 	 1.000000 
5580 	 C 	 13.068865 	 45.194600 	 47.331379 	 C 	 1  ala 	 1.000000 
5581 	 C 	 12.405484 	 45.361164 	 48.060886 	 C 	 1  ala 	 1.000000 
5582 	 C 	 12.439601 	 45.244540 	 47.068296 	 C 	 1  ala 	 1.000000 
5583 	 C 	 12.795333 	 45.170556 	 46.136642 	 C 	 1  ala 	 1.000000 
5584 	 C 	 13.342055 	 44.684373 	 46.818346 	 C 	 1  ala 	 1.000000 
5585 	 C 	 12.798461 	 45.040921 	 46.058491 	 C 	 1  ala 	 1.000000 
5586 	 C 	 13.673799 	 45.181237 	 45.595787 	 C 	 1  ala 	 1.000000 
5587 	 C 	 13.530911 	 45.890030 	 44.904994 	 C 	 1  ala 	 1.000000 
5588 	 C 	 13.108278 	 45.034008 	 44.607322 	 C 	 1  ala 	 1.000000 
5589 	 C 	 12.222633 	 45.372500 	 44.289427 	 C 	 1  ala 	 1.000000 
5590 	 C 	 11.860565 	 46.304651 	 44.288333 	 C 	 1  ala 	 1.000000 
5591 	 C 	 11.929336 	 46.960652 	 45.039953 	 C 	 1  ala 	 1.000000 
5592 	 C 	 10.968130 	 47.106236 	 45.274237 	 C 	 1  ala 	 1.000000 
5593 	 C 	 10.731917 	 46.384920 	 44.623156 	 C 	 1  ala 	 1.000000 
5594 	 C 	 10.664128 	 46.193832 	 45.602385 	 C 	 1  ala 	 1.000000 
5595 	 C 	 11.293880 	 45.723916 	 44.983846 	 C 	 1  ala 	 1.000000 
5596 	 C 	 12.015591 	 45.161670 	 45.387594 	 C 	 1  ala 	 1.000000 
5597 	 C 	 11.534618 	 44.297798 	 45.537235 	 C 	 1  ala 	 1.000000 
5598 	 C 	 12.524603 	 44.323529 	 45.398427 	 C 	 1  ala 	 1.000000 
5599 	 C 	 13.086610 	 44.439835 	 46.217342 	 C 	 1  ala 	 1.000000 
5600 	 C 	 12.596628 	 44.971739 	 45.526693 	 C 	 1  ala 	 1.000000 
5601 	 C 	 13.433638 	 45.439683 	 45.243069 	 C 	 1  ala 	 1.000000 
5602 	 C 	 14.373759 	 45.764443 	 45.139611 	 C 	 1  ala 	 1.000000 
5603 	 C 	 13.887907 	 45.474625 	 45.964205 	 C 	 1  ala 	 1.000000 
5604 	 C 	 13.133977 	 45.881745 	 46.479804 	 C 	 1  ala 	 1.000000 
5605 	 C 	 13.702225 	 45.567352 	 45.719376 	 C 	 1  ala 	 1.000000 
5606 	 C 	 13.401532 	 45.766447 	 44.786667 	 C 	 1  ala 	 1.000000 
5607 	 C 	 13.236638 	 46.698970 	 45.107932 	 C 	 1  ala 	 1.000000 
5608 	 C 	 13.287594 	 46.114957 	 44.297789 	 C 	 1  ala 	 1.000000 
5609 	 C 	 13.770618 	 46.536667 	 43.530425 	 C 	 1  ala 	 1.000000 
5610 	 C 	 12.784118 	 46.423218 	 43.648522 	 C 	 1  ala 	 1.000000 
5611 	 C 	 13.777035 	 46.305165 	 43.635121 	 C 	 1  ala 	 1.000000 
5612 	 C 	 13.616671 	 46.347822 	 44.621257 	 C 	 1  ala 	 1.000000 
5613 	 C 	 12.672246 	 46.036263 	 44.516413 	 C 	 1  ala 	 1.000000 
5614 	 C 	 12.260081 	 45.951566 	 45.423577 	 C 	 1  ala 	 1.000000 
5615 	 C 	 11.871599 	 46.872996 	 45.416592 	 C 	 1  ala 	 1.000000 
5616 	 C 	 12.006379 	 47.530253 	 46.158108 	 C 	 1  ala 	 1.000000 
5617 	 C 	 12.547555 	 47.119401 	 45.424399 	 C 	 1  ala 	 1.000000 
5618 	 C 	 11.752474 	 46.515604 	 45.481619 	 C 	 1  ala 	 1.000000 
5619 	 C 	 11.754377 	 47.307577 	 46.092171 	 C 	 1  ala 	 1.000000 
5620 	 C 	 11.083217 	 47.615740 	 46.766397 	 C 	 1  ala 	 1.000000 
5621 	 C 	 10.269196 	 47.762782 	 46.204481 	 C 	 1  ala 	 1.000000 
5622 	 C 	 10.808177 	 47.024637 	 45.798721 	 C 	 1  ala 	 1.000000 
5623 	 C 	 10.102173 	 46.977102 	 46.505331 	 C 	 1  ala 	 1.000000 
5624 	 C 	 10.577026 	 46.927123 	 47.383976 	 C 	 1  ala 	 1.000000 
5625 	 C 	 10.969342 	 46.517771 	 46.560253 	 C 	 1  ala 	 1.000000 
5626 	 C 	 10.291652 	 46.066040 	 47.140490 	 C 	 1  ala 	 1.000000 
5627 	 C 	 11.261617 	 46.184306 	 46.927933 	 C 	 1  ala 	 1.000000 
5628 	 C 	 11.348990 	 45.388497 	 46.328723 	 C 	 1  ala 	 1.000000 
5629 	 C 	 10.705221 	 45.369111 	 45.563748 	 C 	 1  ala 	 1.000000 
5630 	 C 	 11.217630 	 45.854387 	 46.272229 	 C 	 1  ala 	 1.000000 
5631 	 C 	 11.871202 	 46.608723 	 46.210428 	 C 	 1  ala 	 1.000000 
5632 	 C 	 12.544338 	 45.903381 	 45.988210 	 C 	 1  ala 	 1.000000 
5633 	 C 	 11.822838 	 45.285271 	 45.676157 	 C 	 1  ala 	 1.000000 
5634 	 C 	 11.453554 	 45.849110 	 44.937432 	 C 	 1  ala 	 1.000000 
5635 	 C 	 10.588948 	 45.558379 	 45.347227 	 C 	 1  ala 	 1.000000 
5636 	 C 	 10.666270 	 46.422846 	 45.843936 	 C 	 1  ala 	 1.000000 
5637 	 C 	 11.547278 	 46.088078 	 45.509637 	 C 	 1  ala 	 1.000000 
5638 	 C 	 11.078354 	 45.891981 	 46.370832 	 C 	 1  ala 	 1.000000 
5639 	 C 	 12.047801 	 45.646680 	 46.371754 	 C 	 1  ala 	 1.000000 
5640 	 C 	 11.061635 	 45.487891 	 46.324173 	 C 	 1  ala 	 1.000000 
5641 	 C 	 11.703015 	 44.935288 	 45.791950 	 C 	 1  ala 	 1.000000 
5642 	 C 	 10.976587 	 45.241228 	 45.176561 	 C 	 1  ala 	 1.000000 
5643 	 C 	 10.401116 	 46.043894 	 45.019841 	 C 	 1  ala 	 1.000000 
5644 	 C 	 10.451391 	 45.602290 	 44.124040 	 C 	 1  ala 	 1.000000 
5645 	 C 	 10.901468 	 46.187063 	 44.798926 	 C 	 1  ala 	 1.000000 
5646 	 C 	 11.625871 	 45.497735 	 44.807080 	 C 	 1  ala 	 1.000000 
5647 	 C 	 11.800783 	 46.218288 	 45.478057 	 C 	 1  ala 	 1.000000 
5648 	 C 	 11.111081 	 45.636069 	 45.047555 	 C 	 1  ala 	 1.000000 
5649 	 C 	 10.376089 	 45.063967 	 44.683567 	 C 	 1  ala 	 1.000000 
5650 	 C 	 10.438128 	 45.615313 	 43.851600 	 C 	 1  ala 	 1.000000 
5651 	 C 	 9.919603 	 44.807060 	 44.130633 	 C 	 1  ala 	 1.000000 
5652 	 C 	 10.442401 	 44.645171 	 44.967576 	 C 	 1  ala 	 1.000000 
5653 	 C 	 9.733719 	 44.832534 	 44.287382 	 C 	 1  ala 	 1.000000 
5654 	 C 	 10.464582 	 44.156600 	 44.381999 	 C 	 1  ala 	 1.000000 
5655 	 C 	 10.116548 	 44.299185 	 45.308574 	 C 	 1  ala 	 1.000000 
5656 	 C 	 10.086353 	 44.713007 	 46.218431 	 C 	 1  ala 	 1.000000 
5657 	 C 	 9.707374 	 45.497708 	 45.727901 	 C 	 1  ala 	 1.000000 
5658 	 C 	 9.336228 	 45.272654 	 44.827012 	 C 	 1  ala 	 1.000000 
5659 	 C 	 9.692726 	 44.357557 	 44.638578 	 C 	 1  ala 	 1.000000 
5660 	 C 	 9.464922 	 44.921835 	 43.845045 	 C 	 1  ala 	 1.000000 
5661 	 C 	 8.954604 	 44.377402 	 43.179336 	 C 	 1  ala 	 1.000000 
5662 	 C 	 9.271674 	 45.102236 	 43.790959 	 C 	 1  ala 	 1.000000 
5663 	 C 	 8.275894 	 45.186820 	 43.755338 	 C 	 1  ala 	 1.000000 
5664 	 C 	 8.067329 	 44.319101 	 43.304158 	 C 	 1  ala 	 1.000000 
5665 	 C 	 7.403567 	 45.063386 	 43.230266 	 C 	 1  ala 	 1.000000 
5666 	 C 	 7.831550 	 44.168545 	 43.103421 	 C 	 1  ala 	 1.000000 
5667 	 C 	 6.908421 	 44.050162 	 43.469232 	 C 	 1  ala 	 1.000000 
5668 	 C 	 7.420572 	 43.251629 	 43.152932 	 C 	 1  ala 	 1.000000 
5669 	 C 	 7.538178 	 42.259520 	 43.109483 	 C 	 1  ala 	 1.000000 
5670 	 C 	 8.422853 	 42.234264 	 42.643959 	 C 	 1  ala 	 1.000000 
5671 	 C 	 8.770385 	 43.160120 	 42.792326 	 C 	 1  ala 	 1.000000 
5672 	 C 	 9.398868 	 43.384048 	 43.537219 	 C 	 1  ala 	 1.000000 
5673 	 C 	 8.499373 	 43.295108 	 43.109435 	 C 	 1  ala 	 1.000000 
5674 	 C 	 9.123160 	 43.518977 	 42.360588 	 C 	 1  ala 	 1.000000 
5675 	 C 	 9.707130 	 43.114357 	 41.656839 	 C 	 1  ala 	 1.000000 
5676 	 C 	 9.262856 	 42.503476 	 42.312159 	 C 	 1  ala 	 1.000000 
5677 	 C 	 10.111587 	 42.263257 	 41.841043 	 C 	 1  ala 	 1.000000 
5678 	 C 	 10.590815 	 43.047514 	 41.446986 	 C 	 1  ala 	 1.000000 
5679 	 C 	 10.533262 	 43.814575 	 42.085974 	 C 	 1  ala 	 1.000000 
5680 	 C 	 9.710217 	 43.835079 	 41.518369 	 C 	 1  ala 	 1.000000 
5681 	 C 	 10.119659 	 43.611409 	 40.633875 	 C 	 1  ala 	 1.000000 
5682 	 C 	 10.954768 	 43.577581 	 40.084831 	 C 	 1  ala 	 1.000000 
5683 	 C 	 10.578498 	 43.602938 	 41.010994 	 C 	 1  ala 	 1.000000 
5684 	 C 	 11.295173 	 43.541864 	 40.316266 	 C 	 1  ala 	 1.000000 
5685 	 C 	 10.922229 	 44.041653 	 41.098010 	 C 	 1  ala 	 1.000000 
5686 	 C 	 10.401233 	 44.815588 	 41.457993 	 C 	 1  ala 	 1.000000 
5687 	 C 	 11.184914 	 45.434099 	 41.515333 	 C 	 1  ala 	 1.000000 
5688 	 C 	 12.146239 	 45.417813 	 41.790267 	 C 	 1  ala 	 1.000000 
5689 	 C 	 11.727111 	 44.989038 	 40.989964 	 C 	 1  ala 	 1.000000 
5690 	 C 	 11.579550 	 45.175488 	 41.961284 	 C 	 1  ala 	 1.000000 
5691 	 C 	 12.569477 	 45.180212 	 42.102783 	 C 	 1  ala 	 1.000000 
5692 	 C 	 12.069427 	 44.324565 	 41.969293 	 C 	 1  ala 	 1.000000 
5693 	 C 	 12.925727 	 43.989840 	 42.362624 	 C 	 1  ala 	 1.000000 
5694 	 C 	 12.053057 	 44.155956 	 41.903437 	 C 	 1  ala 	 1.000000 
5695 	 C 	 11.165860 	 44.420771 	 42.281266 	 C 	 1  ala 	 1.000000 
5696 	 C 	 10.790076 	 43.532537 	 42.545513 	 C 	 1  ala 	 1.000000 
5697 	 C 	 10.889973 	 44.270237 	 41.877816 	 C 	 1  ala 	 1.000000 
5698 	 C 	 10.592585 	 43.326013 	 41.736396 	 C 	 1  ala 	 1.000000 
5699 	 C 	 10.953615 	 42.821327 	 42.520583 	 C 	 1  ala 	 1.000000 
5700 	 C 	 10.492246 	 42.519011 	 41.686470 	 C 	 1  ala 	 1.000000 
5701 	 C 	 10.771010 	 42.387297 	 42.637755 	 C 	 1  ala 	 1.000000 
5702 	 C 	 10.868127 	 43.306601 	 42.256376 	 C 	 1  ala 	 1.000000 
5703 	 C 	 11.700259 	 43.854330 	 42.169496 	 C 	 1  ala 	 1.000000 
5704 	 C 	 12.520577 	 43.949488 	 42.733433 	 C 	 1  ala 	 1.000000 
5705 	 C 	 11.979438 	 43.285169 	 43.249039 	 C 	 1  ala 	 1.000000 
5706 	 C 	 12.309430 	 42.658051 	 42.543470 	 C 	 1  ala 	 1.000000 
5707 	 C 	 11.837857 	 43.389868 	 42.051471 	 C 	 1  ala 	 1.000000 
5708 	 C 	 11.444823 	 43.816916 	 41.237128 	 C 	 1  ala 	 1.000000 
5709 	 C 	 11.491687 	 42.982425 	 41.786153 	 C 	 1  ala 	 1.000000 
5710 	 C 	 12.125058 	 42.749119 	 41.048312 	 C 	 1  ala 	 1.000000 
5711 	 C 	 11.437529 	 43.077326 	 41.696065 	 C 	 1  ala 	 1.000000 
5712 	 C 	 11.145826 	 43.390960 	 40.792437 	 C 	 1  ala 	 1.000000 
5713 	 C 	 10.974993 	 43.955606 	 39.984978 	 C 	 1  ala 	 1.000000 
5714 	 C 	 11.580526 	 44.467804 	 39.375894 	 C 	 1  ala 	 1.000000 
5715 	 C 	 11.175843 	 43.732118 	 39.919031 	 C 	 1  ala 	 1.000000 
5716 	 C 	 11.999674 	 43.403754 	 40.381069 	 C 	 1  ala 	 1.000000 
5717 	 C 	 12.209924 	 42.509512 	 40.776198 	 C 	 1  ala 	 1.000000 
5718 	 C 	 12.640830 	 43.409360 	 40.708417 	 C 	 1  ala 	 1.000000 
5719 	 C 	 13.201990 	 44.126412 	 41.121861 	 C 	 1  ala 	 1.000000 
5720 	 C 	 13.058002 	 44.351781 	 42.085436 	 C 	 1  ala 	 1.000000 
5721 	 C 	 13.672219 	 43.794290 	 42.643954 	 C 	 1  ala 	 1.000000 
5722 	 C 	 12.706743 	 43.620329 	 42.450061 	 C 	 1  ala 	 1.000000 
5723 	 C 	 13.095830 	 44.458181 	 42.832965 	 C 	 1  ala 	 1.000000 
5724 	 C 	 14.082768 	 44.619188 	 42.838411 	 C 	 1  ala 	 1.000000 
5725 	 C 	 13.709918 	 44.160922 	 43.645241 	 C 	 1  ala 	 1.000000 
5726 	 C 	 13.912382 	 43.852559 	 44.574714 	 C 	 1  ala 	 1.000000 
5727 	 C 	 13.872017 	 44.497196 	 45.338137 	 C 	 1  ala 	 1.000000 
5728 	 C 	 13.336129 	 44.854900 	 44.573368 	 C 	 1  ala 	 1.000000 
5729 	 C 	 12.427952 	 45.179996 	 44.837049 	 C 	 1  ala 	 1.000000 
5730 	 C 	 12.287268 	 45.560285 	 43.922944 	 C 	 1  ala 	 1.000000 
5731 	 C 	 11.962792 	 44.836376 	 44.531771 	 C 	 1  ala 	 1.000000 
5732 	 C 	 11.755311 	 44.352795 	 43.681417 	 C 	 1  ala 	 1.000000 
5733 	 C 	 11.893720 	 45.275841 	 43.322488 	 C 	 1  ala 	 1.000000 
5734 	 C 	 11.687794 	 45.006590 	 44.263285 	 C 	 1  ala 	 1.000000 
5735 	 C 	 11.771171 	 44.941115 	 43.268920 	 C 	 1  ala 	 1.000000 
5736 	 C 	 11.033497 	 45.400389 	 42.774041 	 C 	 1  ala 	 1.000000 
5737 	 C 	 11.809435 	 45.919144 	 43.132947 	 C 	 1  ala 	 1.000000 
5738 	 C 	 12.658693 	 46.175973 	 43.594251 	 C 	 1  ala 	 1.000000 
5739 	 C 	 12.765504 	 47.015423 	 43.061415 	 C 	 1  ala 	 1.000000 
5740 	 C 	 12.627631 	 46.575559 	 42.173997 	 C 	 1  ala 	 1.000000 
5741 	 C 	 13.411513 	 46.090345 	 42.561421 	 C 	 1  ala 	 1.000000 
5742 	 C 	 13.041398 	 46.662982 	 43.292928 	 C 	 1  ala 	 1.000000 
5743 	 C 	 13.278104 	 45.861293 	 43.841804 	 C 	 1  ala 	 1.000000 
5744 	 C 	 12.965176 	 45.863506 	 42.892030 	 C 	 1  ala 	 1.000000 
5745 	 C 	 12.081414 	 45.421978 	 42.737052 	 C 	 1  ala 	 1.000000 
5746 	 C 	 12.663259 	 45.776183 	 42.004935 	 C 	 1  ala 	 1.000000 
5747 	 C 	 12.974466 	 46.636418 	 42.408849 	 C 	 1  ala 	 1.000000 
5748 	 C 	 12.702040 	 47.580273 	 42.221972 	 C 	 1  ala 	 1.000000 
5749 	 C 	 13.522161 	 47.073042 	 41.957173 	 C 	 1  ala 	 1.000000 
5750 	 C 	 13.935374 	 46.183958 	 41.760234 	 C 	 1  ala 	 1.000000 
5751 	 C 	 13.263030 	 46.913367 	 41.886388 	 C 	 1  ala 	 1.000000 
5752 	 C 	 13.935493 	 46.473940 	 41.290823 	 C 	 1  ala 	 1.000000 
5753 	 C 	 13.019664 	 46.818383 	 41.084384 	 C 	 1  ala 	 1.000000 
5754 	 C 	 12.690402 	 47.333345 	 41.875839 	 C 	 1  ala 	 1.000000 
5755 	 C 	 13.503512 	 47.826043 	 41.565837 	 C 	 1  ala 	 1.000000 
5756 	 C 	 13.432007 	 48.793884 	 41.807021 	 C 	 1  ala 	 1.000000 
5757 	 C 	 12.878636 	 49.211653 	 42.527611 	 C 	 1  ala 	 1.000000 
5758 	 C 	 13.090664 	 48.235584 	 42.479298 	 C 	 1  ala 	 1.000000 
5759 	 C 	 13.617367 	 49.058940 	 42.690649 	 C 	 1  ala 	 1.000000 
5760 	 C 	 14.462267 	 48.596413 	 42.959373 	 C 	 1  ala 	 1.000000 
5761 	 C 	 13.591788 	 48.690286 	 43.442544 	 C 	 1  ala 	 1.000000 
5762 	 C 	 13.751607 	 48.313284 	 42.530224 	 C 	 1  ala 	 1.000000 
5763 	 C 	 13.392240 	 48.669991 	 43.392556 	 C 	 1  ala 	 1.000000 
5764 	 C 	 14.165036 	 48.460874 	 42.793342 	 C 	 1  ala 	 1.000000 
5765 	 C 	 14.682710 	 47.758816 	 43.282348 	 C 	 1  ala 	 1.000000 
5766 	 C 	 15.066434 	 47.073566 	 42.663325 	 C 	 1  ala 	 1.000000 
5767 	 C 	 15.103355 	 47.637802 	 43.488113 	 C 	 1  ala 	 1.000000 
5768 	 C 	 15.792177 	 46.981583 	 43.796172 	 C 	 1  ala 	 1.000000 
5769 	 C 	 14.813480 	 47.019622 	 43.594416 	 C 	 1  ala 	 1.000000 
5770 	 C 	 15.309711 	 46.907241 	 42.733530 	 C 	 1  ala 	 1.000000 
5771 	 C 	 15.631757 	 46.629206 	 41.828553 	 C 	 1  ala 	 1.000000 
5772 	 C 	 16.203941 	 46.646412 	 42.648498 	 C 	 1  ala 	 1.000000 
5773 	 C 	 16.681938 	 46.310786 	 43.460208 	 C 	 1  ala 	 1.000000 
5774 	 C 	 16.652377 	 47.077439 	 42.818827 	 C 	 1  ala 	 1.000000 
5775 	 C 	 16.518619 	 46.094674 	 42.946425 	 C 	 1  ala 	 1.000000 
5776 	 C 	 16.492146 	 46.060736 	 41.947352 	 C 	 1  ala 	 1.000000 
5777 	 C 	 16.111689 	 46.492724 	 41.129649 	 C 	 1  ala 	 1.000000 
5778 	 C 	 16.339434 	 47.067283 	 41.915787 	 C 	 1  ala 	 1.000000 
5779 	 C 	 17.208673 	 47.310228 	 42.346369 	 C 	 1  ala 	 1.000000 
5780 	 C 	 16.994289 	 46.346737 	 42.185986 	 C 	 1  ala 	 1.000000 
5781 	 C 	 17.194286 	 46.068935 	 41.246397 	 C 	 1  ala 	 1.000000 
5782 	 C 	 16.706035 	 46.415682 	 42.047257 	 C 	 1  ala 	 1.000000 
5783 	 C 	 17.173729 	 45.555892 	 41.842259 	 C 	 1  ala 	 1.000000 
5784 	 C 	 16.366039 	 45.500709 	 42.429278 	 C 	 1  ala 	 1.000000 
5785 	 C 	 15.765694 	 45.419977 	 41.633623 	 C 	 1  ala 	 1.000000 
5786 	 C 	 14.777814 	 45.380629 	 41.483475 	 C 	 1  ala 	 1.000000 
5787 	 C 	 14.162217 	 45.590823 	 40.723962 	 C 	 1  ala 	 1.000000 
5788 	 C 	 14.551575 	 45.185703 	 39.896751 	 C 	 1  ala 	 1.000000 
5789 	 C 	 15.476334 	 45.446962 	 39.620047 	 C 	 1  ala 	 1.000000 
5790 	 C 	 15.213720 	 45.619692 	 40.569362 	 C 	 1  ala 	 1.000000 
5791 	 C 	 14.674675 	 44.912703 	 41.027180 	 C 	 1  ala 	 1.000000 
5792 	 C 	 14.802230 	 44.005886 	 40.625418 	 C 	 1  ala 	 1.000000 
5793 	 C 	 14.619505 	 43.680388 	 39.697699 	 C 	 1  ala 	 1.000000 
5794 	 C 	 13.659497 	 43.545444 	 39.452395 	 C 	 1  ala 	 1.000000 
5795 	 C 	 13.284277 	 43.761632 	 40.353768 	 C 	 1  ala 	 1.000000 
5796 	 C 	 13.331872 	 43.735272 	 41.352287 	 C 	 1  ala 	 1.000000 
5797 	 C 	 12.479211 	 43.515167 	 40.878447 	 C 	 1  ala 	 1.000000 
5798 	 C 	 12.964652 	 42.803982 	 41.386937 	 C 	 1  ala 	 1.000000 
5799 	 C 	 13.046352 	 42.092088 	 42.084456 	 C 	 1  ala 	 1.000000 
5800 	 C 	 12.519131 	 42.848563 	 42.471473 	 C 	 1  ala 	 1.000000 
5801 	 C 	 12.113040 	 42.237757 	 41.791763 	 C 	 1  ala 	 1.000000 
5802 	 C 	 11.155161 	 41.962662 	 41.874164 	 C 	 1  ala 	 1.000000 
5803 	 C 	 12.067101 	 41.830466 	 42.262609 	 C 	 1  ala 	 1.000000 
5804 	 C 	 11.721871 	 42.580182 	 41.698037 	 C 	 1  ala 	 1.000000 
5805 	 C 	 11.726777 	 42.890001 	 40.747254 	 C 	 1  ala 	 1.000000 
5806 	 C 	 12.077966 	 43.168582 	 41.641155 	 C 	 1  ala 	 1.000000 
5807 	 C 	 12.371623 	 43.761456 	 42.390998 	 C 	 1  ala 	 1.000000 
5808 	 C 	 12.779191 	 43.661180 	 41.483346 	 C 	 1  ala 	 1.000000 
5809 	 C 	 12.695316 	 43.363801 	 40.532277 	 C 	 1  ala 	 1.000000 
5810 	 C 	 13.004105 	 43.443537 	 39.584495 	 C 	 1  ala 	 1.000000 
5811 	 C 	 13.902640 	 43.858906 	 39.442703 	 C 	 1  ala 	 1.000000 
5812 	 C 	 13.083645 	 44.283592 	 39.056841 	 C 	 1  ala 	 1.000000 
5813 	 C 	 13.385264 	 43.902757 	 38.182775 	 C 	 1  ala 	 1.000000 
5814 	 C 	 12.672352 	 43.429740 	 38.700475 	 C 	 1  ala 	 1.000000 
5815 	 C 	 12.542514 	 42.576715 	 39.205935 	 C 	 1  ala 	 1.000000 
5816 	 C 	 11.652938 	 42.983231 	 39.414258 	 C 	 1  ala 	 1.000000 
5817 	 C 	 12.182069 	 42.420842 	 38.778853 	 C 	 1  ala 	 1.000000 
5818 	 C 	 12.274488 	 41.671580 	 39.434646 	 C 	 1  ala 	 1.000000 
5819 	 C 	 12.207434 	 42.026415 	 40.367167 	 C 	 1  ala 	 1.000000 
5820 	 C 	 12.696168 	 42.192984 	 41.223551 	 C 	 1  ala 	 1.000000 
5821 	 C 	 11.711085 	 42.083363 	 41.356193 	 C 	 1  ala 	 1.000000 
5822 	 C 	 12.066978 	 42.881063 	 41.843035 	 C 	 1  ala 	 1.000000 
5823 	 C 	 12.215862 	 41.946652 	 41.519448 	 C 	 1  ala 	 1.000000 
5824 	 C 	 13.200797 	 41.816559 	 41.405522 	 C 	 1  ala 	 1.000000 
5825 	 C 	 12.805708 	 40.921378 	 41.611812 	 C 	 1  ala 	 1.000000 
5826 	 C 	 13.541830 	 40.645785 	 40.993610 	 C 	 1  ala 	 1.000000 
5827 	 C 	 14.114367 	 40.131341 	 40.355214 	 C 	 1  ala 	 1.000000 
5828 	 C 	 14.571369 	 39.892595 	 41.212039 	 C 	 1  ala 	 1.000000 
5829 	 C 	 14.571190 	 38.895095 	 41.141379 	 C 	 1  ala 	 1.000000 
5830 	 C 	 14.044484 	 38.858209 	 40.292132 	 C 	 1  ala 	 1.000000 
5831 	 C 	 13.359064 	 39.379889 	 40.800118 	 C 	 1  ala 	 1.000000 
5832 	 C 	 12.845755 	 39.802884 	 41.546837 	 C 	 1  ala 	 1.000000 
5833 	 C 	 13.007066 	 39.074111 	 40.881353 	 C 	 1  ala 	 1.000000 
5834 	 C 	 13.979705 	 39.000980 	 41.101863 	 C 	 1  ala 	 1.000000 
5835 	 C 	 13.907451 	 39.297483 	 40.149569 	 C 	 1  ala 	 1.000000 
5836 	 C 	 13.003396 	 39.723086 	 40.188883 	 C 	 1  ala 	 1.000000 
5837 	 C 	 12.516278 	 39.312715 	 39.417967 	 C 	 1  ala 	 1.000000 
5838 	 C 	 11.858658 	 39.750854 	 40.030804 	 C 	 1  ala 	 1.000000 
5839 	 C 	 11.374051 	 40.563289 	 40.355005 	 C 	 1  ala 	 1.000000 
5840 	 C 	 11.381550 	 41.073783 	 41.214853 	 C 	 1  ala 	 1.000000 
5841 	 C 	 12.183679 	 41.031779 	 40.619181 	 C 	 1  ala 	 1.000000 
5842 	 C 	 12.122216 	 40.196994 	 41.166316 	 C 	 1  ala 	 1.000000 
5843 	 C 	 12.471393 	 39.327549 	 41.515801 	 C 	 1  ala 	 1.000000 
5844 	 C 	 12.496241 	 38.620006 	 40.809567 	 C 	 1  ala 	 1.000000 
5845 	 C 	 12.255067 	 38.288274 	 41.721592 	 C 	 1  ala 	 1.000000 
5846 	 C 	 13.248964 	 38.189884 	 41.671707 	 C 	 1  ala 	 1.000000 
5847 	 C 	 12.471449 	 38.705476 	 41.311656 	 C 	 1  ala 	 1.000000 
5848 	 C 	 11.970546 	 39.552147 	 41.491217 	 C 	 1  ala 	 1.000000 
5849 	 C 	 11.780902 	 40.013017 	 42.358186 	 C 	 1  ala 	 1.000000 
5850 	 C 	 11.597753 	 39.884549 	 41.383531 	 C 	 1  ala 	 1.000000 
5851 	 C 	 12.381812 	 40.496271 	 41.488643 	 C 	 1  ala 	 1.000000 
5852 	 C 	 12.134415 	 39.595051 	 41.132838 	 C 	 1  ala 	 1.000000 
5853 	 C 	 11.558376 	 39.038505 	 41.731533 	 C 	 1  ala 	 1.000000 
5854 	 C 	 10.723926 	 39.186778 	 42.262295 	 C 	 1  ala 	 1.000000 
5855 	 C 	 11.195451 	 39.620917 	 43.029880 	 C 	 1  ala 	 1.000000 
5856 	 C 	 11.705397 	 39.799482 	 43.871349 	 C 	 1  ala 	 1.000000 
5857 	 C 	 12.194483 	 40.165231 	 43.079502 	 C 	 1  ala 	 1.000000 
5858 	 C 	 11.639459 	 39.876560 	 43.859641 	 C 	 1  ala 	 1.000000 
5859 	 C 	 10.759406 	 40.305231 	 44.063968 	 C 	 1  ala 	 1.000000 
5860 	 C 	 11.181756 	 41.066055 	 43.571254 	 C 	 1  ala 	 1.000000 
5861 	 C 	 11.989568 	 40.733199 	 44.057718 	 C 	 1  ala 	 1.000000 
5862 	 C 	 12.701691 	 40.351635 	 43.468406 	 C 	 1  ala 	 1.000000 
5863 	 C 	 13.417113 	 40.586758 	 44.126349 	 C 	 1  ala 	 1.000000 
5864 	 C 	 12.852672 	 39.764199 	 44.195656 	 C 	 1  ala 	 1.000000 
5865 	 C 	 13.330630 	 40.026501 	 43.357352 	 C 	 1  ala 	 1.000000 
5866 	 C 	 13.660077 	 40.692934 	 42.688523 	 C 	 1  ala 	 1.000000 
5867 	 C 	 13.959313 	 41.633252 	 42.526476 	 C 	 1  ala 	 1.000000 
5868 	 C 	 13.297908 	 41.557869 	 41.780246 	 C 	 1  ala 	 1.000000 
5869 	 C 	 13.032972 	 40.913169 	 41.063188 	 C 	 1  ala 	 1.000000 
5870 	 C 	 13.612484 	 41.613630 	 40.646629 	 C 	 1  ala 	 1.000000 
5871 	 C 	 13.369303 	 40.643780 	 40.630654 	 C 	 1  ala 	 1.000000 
5872 	 C 	 12.798594 	 41.380849 	 40.268685 	 C 	 1  ala 	 1.000000 
5873 	 C 	 12.060530 	 41.486340 	 39.602251 	 C 	 1  ala 	 1.000000 
5874 	 C 	 11.780808 	 41.718205 	 38.670589 	 C 	 1  ala 	 1.000000 
5875 	 C 	 12.337248 	 42.213748 	 38.003647 	 C 	 1  ala 	 1.000000 
5876 	 C 	 11.910519 	 42.893140 	 37.406714 	 C 	 1  ala 	 1.000000 
5877 	 C 	 12.313864 	 43.769255 	 37.670788 	 C 	 1  ala 	 1.000000 
5878 	 C 	 12.043847 	 43.651824 	 38.626456 	 C 	 1  ala 	 1.000000 
5879 	 C 	 12.021162 	 43.138946 	 37.768294 	 C 	 1  ala 	 1.000000 
5880 	 C 	 11.511368 	 43.801547 	 37.219596 	 C 	 1  ala 	 1.000000 
5881 	 C 	 10.888954 	 44.052776 	 36.478323 	 C 	 1  ala 	 1.000000 
5882 	 C 	 9.985758 	 44.361995 	 36.180632 	 C 	 1  ala 	 1.000000 
5883 	 C 	 9.475880 	 43.501805 	 36.170789 	 C 	 1  ala 	 1.000000 
5884 	 C 	 8.488746 	 43.372862 	 36.265344 	 C 	 1  ala 	 1.000000 
5885 	 C 	 9.274688 	 43.814358 	 36.698216 	 C 	 1  ala 	 1.000000 
5886 	 C 	 9.916488 	 43.648928 	 37.447032 	 C 	 1  ala 	 1.000000 
5887 	 C 	 9.939696 	 43.452899 	 38.427355 	 C 	 1  ala 	 1.000000 
5888 	 C 	 10.340869 	 44.117340 	 37.796817 	 C 	 1  ala 	 1.000000 
5889 	 C 	 10.809490 	 44.526428 	 37.013847 	 C 	 1  ala 	 1.000000 
5890 	 C 	 10.341094 	 44.207997 	 36.189707 	 C 	 1  ala 	 1.000000 
5891 	 C 	 9.492110 	 44.338907 	 35.677761 	 C 	 1  ala 	 1.000000 
5892 	 C 	 9.541310 	 43.355540 	 35.852601 	 C 	 1  ala 	 1.000000 
5893 	 C 	 10.491132 	 43.253644 	 36.148331 	 C 	 1  ala 	 1.000000 
5894 	 C 	 9.642470 	 43.590160 	 36.556410 	 C 	 1  ala 	 1.000000 
5895 	 C 	 10.424758 	 44.112127 	 36.896374 	 C 	 1  ala 	 1.000000 
5896 	 C 	 11.379932 	 44.403243 	 36.950174 	 C 	 1  ala 	 1.000000 
5897 	 C 	 10.381415 	 44.433200 	 36.904710 	 C 	 1  ala 	 1.000000 
5898 	 C 	 10.148239 	 44.510459 	 35.935350 	 C 	 1  ala 	 1.000000 
5899 	 C 	 10.751634 	 44.875535 	 36.644317 	 C 	 1  ala 	 1.000000 
5900 	 C 	 10.668047 	 44.118320 	 37.292113 	 C 	 1  ala 	 1.000000 
5901 	 C 	 10.407172 	 45.081605 	 37.228667 	 C 	 1  ala 	 1.000000 
5902 	 C 	 10.293940 	 45.874429 	 37.827506 	 C 	 1  ala 	 1.000000 
5903 	 C 	 9.658989 	 46.512711 	 38.262745 	 C 	 1  ala 	 1.000000 
5904 	 C 	 10.350725 	 45.845568 	 38.539189 	 C 	 1  ala 	 1.000000 
5905 	 C 	 10.307272 	 46.215820 	 37.611274 	 C 	 1  ala 	 1.000000 
5906 	 C 	 9.946497 	 46.520246 	 38.492845 	 C 	 1  ala 	 1.000000 
5907 	 C 	 9.943212 	 46.233611 	 37.534811 	 C 	 1  ala 	 1.000000 
5908 	 C 	 10.653169 	 46.886771 	 37.271479 	 C 	 1  ala 	 1.000000 
5909 	 C 	 11.469951 	 46.464104 	 36.878769 	 C 	 1  ala 	 1.000000 
5910 	 C 	 12.285972 	 46.899098 	 37.259412 	 C 	 1  ala 	 1.000000 
5911 	 C 	 11.295658 	 46.867774 	 37.394678 	 C 	 1  ala 	 1.000000 
5912 	 C 	 11.885546 	 46.728280 	 36.599333 	 C 	 1  ala 	 1.000000 
5913 	 C 	 11.259359 	 46.475477 	 37.336883 	 C 	 1  ala 	 1.000000 
5914 	 C 	 10.748635 	 46.655625 	 38.177543 	 C 	 1  ala 	 1.000000 
5915 	 C 	 10.292238 	 47.280931 	 38.810546 	 C 	 1  ala 	 1.000000 
5916 	 C 	 11.066946 	 46.940303 	 39.343275 	 C 	 1  ala 	 1.000000 
5917 	 C 	 11.838752 	 47.263581 	 38.795730 	 C 	 1  ala 	 1.000000 
5918 	 C 	 12.148302 	 48.204750 	 38.931303 	 C 	 1  ala 	 1.000000 
5919 	 C 	 11.429883 	 48.862069 	 39.158914 	 C 	 1  ala 	 1.000000 
5920 	 C 	 11.365494 	 49.688587 	 39.718128 	 C 	 1  ala 	 1.000000 
5921 	 C 	 11.857535 	 49.859472 	 40.571764 	 C 	 1  ala 	 1.000000 
5922 	 C 	 11.771216 	 50.845983 	 40.710856 	 C 	 1  ala 	 1.000000 
5923 	 C 	 11.386550 	 49.925310 	 40.777146 	 C 	 1  ala 	 1.000000 
5924 	 C 	 11.685712 	 50.272662 	 41.665880 	 C 	 1  ala 	 1.000000 
5925 	 C 	 11.043739 	 50.135812 	 40.911465 	 C 	 1  ala 	 1.000000 
5926 	 C 	 11.609321 	 50.914537 	 40.639982 	 C 	 1  ala 	 1.000000 
5927 	 C 	 12.582448 	 51.085037 	 40.485210 	 C 	 1  ala 	 1.000000 
5928 	 C 	 11.853313 	 51.644880 	 40.091587 	 C 	 1  ala 	 1.000000 
5929 	 C 	 11.683007 	 52.407988 	 40.715016 	 C 	 1  ala 	 1.000000 
5930 	 C 	 11.235847 	 51.924793 	 39.962306 	 C 	 1  ala 	 1.000000 
5931 	 C 	 10.906690 	 52.071075 	 39.029431 	 C 	 1  ala 	 1.000000 
5932 	 C 	 11.722900 	 52.644077 	 39.103392 	 C 	 1  ala 	 1.000000 
5933 	 C 	 11.660785 	 51.683900 	 39.375791 	 C 	 1  ala 	 1.000000 
5934 	 C 	 12.181469 	 51.443911 	 38.556465 	 C 	 1  ala 	 1.000000 
5935 	 C 	 11.833529 	 50.553189 	 38.263973 	 C 	 1  ala 	 1.000000 
5936 	 C 	 12.384582 	 50.118377 	 38.976208 	 C 	 1  ala 	 1.000000 
5937 	 C 	 13.318606 	 50.347097 	 39.250592 	 C 	 1  ala 	 1.000000 
5938 	 C 	 12.383289 	 50.585840 	 38.989470 	 C 	 1  ala 	 1.000000 
5939 	 C 	 13.239681 	 50.327561 	 39.436555 	 C 	 1  ala 	 1.000000 
5940 	 C 	 12.514291 	 49.641251 	 39.489357 	 C 	 1  ala 	 1.000000 
5941 	 C 	 11.551042 	 49.641201 	 39.757967 	 C 	 1  ala 	 1.000000 
5942 	 C 	 11.309732 	 50.363372 	 40.406225 	 C 	 1  ala 	 1.000000 
5943 	 C 	 12.232881 	 50.225322 	 40.765025 	 C 	 1  ala 	 1.000000 
5944 	 C 	 11.580188 	 50.232984 	 40.007442 	 C 	 1  ala 	 1.000000 
5945 	 C 	 11.191632 	 49.500847 	 40.566905 	 C 	 1  ala 	 1.000000 
5946 	 C 	 11.330254 	 48.613138 	 41.005946 	 C 	 1  ala 	 1.000000 
5947 	 C 	 11.343191 	 49.118772 	 40.143295 	 C 	 1  ala 	 1.000000 
5948 	 C 	 10.639695 	 49.784341 	 39.894071 	 C 	 1  ala 	 1.000000 
5949 	 C 	 11.329309 	 49.135889 	 39.571668 	 C 	 1  ala 	 1.000000 
5950 	 C 	 12.313812 	 49.191888 	 39.405481 	 C 	 1  ala 	 1.000000 
5951 	 C 	 11.485084 	 48.724420 	 39.097773 	 C 	 1  ala 	 1.000000 
5952 	 C 	 11.061968 	 48.787456 	 38.193893 	 C 	 1  ala 	 1.000000 
5953 	 C 	 10.371044 	 48.997231 	 37.502070 	 C 	 1  ala 	 1.000000 
5954 	 C 	 10.576756 	 49.917446 	 37.835068 	 C 	 1  ala 	 1.000000 
5955 	 C 	 10.301931 	 48.993998 	 37.567272 	 C 	 1  ala 	 1.000000 
5956 	 C 	 9.871891 	 48.877739 	 38.462565 	 C 	 1  ala 	 1.000000 
5957 	 C 	 9.644051 	 47.912101 	 38.587589 	 C 	 1  ala 	 1.000000 
5958 	 C 	 9.245368 	 48.577117 	 39.219098 	 C 	 1  ala 	 1.000000 
5959 	 C 	 10.077079 	 48.324443 	 39.713479 	 C 	 1  ala 	 1.000000 
5960 	 C 	 10.976529 	 47.954074 	 39.481496 	 C 	 1  ala 	 1.000000 
5961 	 C 	 10.414507 	 47.132413 	 39.386598 	 C 	 1  ala 	 1.000000 
5962 	 C 	 11.279008 	 46.829710 	 38.985337 	 C 	 1  ala 	 1.000000 
5963 	 C 	 12.206039 	 46.966299 	 38.636114 	 C 	 1  ala 	 1.000000 
5964 	 C 	 13.156855 	 46.675401 	 38.742544 	 C 	 1  ala 	 1.000000 
5965 	 C 	 12.524273 	 47.233535 	 39.279504 	 C 	 1  ala 	 1.000000 
5966 	 C 	 12.775627 	 48.149854 	 39.591243 	 C 	 1  ala 	 1.000000 
5967 	 C 	 12.366772 	 47.461838 	 38.991683 	 C 	 1  ala 	 1.000000 
5968 	 C 	 12.708521 	 47.211150 	 39.897422 	 C 	 1  ala 	 1.000000 
5969 	 C 	 13.027694 	 47.129689 	 40.841610 	 C 	 1  ala 	 1.000000 
5970 	 C 	 12.163355 	 47.614960 	 40.709585 	 C 	 1  ala 	 1.000000 
5971 	 C 	 12.561252 	 46.775279 	 41.079196 	 C 	 1  ala 	 1.000000 
5972 	 C 	 12.623684 	 45.795356 	 40.889846 	 C 	 1  ala 	 1.000000 
5973 	 C 	 12.038697 	 45.527787 	 41.655481 	 C 	 1  ala 	 1.000000 
5974 	 C 	 12.148840 	 44.934860 	 42.453169 	 C 	 1  ala 	 1.000000 
5975 	 C 	 12.446043 	 43.981929 	 42.393231 	 C 	 1  ala 	 1.000000 
5976 	 C 	 12.738912 	 44.936304 	 42.334973 	 C 	 1  ala 	 1.000000 
5977 	 C 	 12.025540 	 45.014139 	 41.638524 	 C 	 1  ala 	 1.000000 
5978 	 C 	 12.751115 	 44.941273 	 42.322798 	 C 	 1  ala 	 1.000000 
5979 	 C 	 12.561453 	 45.236728 	 43.259139 	 C 	 1  ala 	 1.000000 
5980 	 C 	 12.857293 	 45.835425 	 44.003478 	 C 	 1  ala 	 1.000000 
5981 	 C 	 13.118746 	 45.284496 	 43.210938 	 C 	 1  ala 	 1.000000 
5982 	 C 	 13.055136 	 44.359611 	 43.585828 	 C 	 1  ala 	 1.000000 
5983 	 C 	 12.101752 	 44.644490 	 43.685340 	 C 	 1  ala 	 1.000000 
5984 	 C 	 13.058389 	 44.688218 	 43.397360 	 C 	 1  ala 	 1.000000 
5985 	 C 	 13.498347 	 45.580195 	 43.293364 	 C 	 1  ala 	 1.000000 
5986 	 C 	 12.624771 	 45.931824 	 43.629847 	 C 	 1  ala 	 1.000000 
5987 	 C 	 12.766488 	 45.753768 	 42.656085 	 C 	 1  ala 	 1.000000 
5988 	 C 	 13.552504 	 45.494519 	 43.217305 	 C 	 1  ala 	 1.000000 
5989 	 C 	 13.201696 	 45.010905 	 44.019209 	 C 	 1  ala 	 1.000000 
5990 	 C 	 12.873405 	 45.741016 	 43.419907 	 C 	 1  ala 	 1.000000 
5991 	 C 	 13.812820 	 45.496696 	 43.179477 	 C 	 1  ala 	 1.000000 
5992 	 C 	 13.028258 	 45.228515 	 42.620423 	 C 	 1  ala 	 1.000000 
5993 	 C 	 12.149792 	 45.537359 	 42.984997 	 C 	 1  ala 	 1.000000 
5994 	 C 	 12.464483 	 45.376881 	 42.049467 	 C 	 1  ala 	 1.000000 
5995 	 C 	 11.515983 	 45.120456 	 42.235461 	 C 	 1  ala 	 1.000000 
5996 	 C 	 11.193173 	 44.471507 	 41.546506 	 C 	 1  ala 	 1.000000 
5997 	 C 	 12.065994 	 44.047794 	 41.788686 	 C 	 1  ala 	 1.000000 
5998 	 C 	 11.238128 	 43.815912 	 41.277932 	 C 	 1  ala 	 1.000000 
5999 	 C 	 11.319566 	 42.836219 	 41.461152 	 C 	 1  ala 	 1.000000 
6000 	 C 	 11.901189 	 43.623954 	 41.258201 	 C 	 1  ala 	 1.000000 
6001 	 C 	 11.671848 	 42.895407 	 40.612738 	 C 	 1  ala 	 1.000000 
6002 	 C 	 12.611257 	 43.214552 	 40.737872 	 C 	 1  ala 	 1.000000 
6003 	 C 	 12.470955 	 42.255897 	 40.490289 	 C 	 1  ala 	 1.000000 
6004 	 C 	 11.512339 	 42.516907 	 40.604002 	 C 	 1  ala 	 1.000000 
6005 	 C 	 11.643365 	 42.060231 	 41.483933 	 C 	 1  ala 	 1.000000 
6006 	 C 	 12.287063 	 42.727700 	 41.109583 	 C 	 1  ala 	 1.000000 
6007 	 C 	 11.358740 	 43.072864 	 41.247709 	 C 	 1  ala 	 1.000000 
6008 	 C 	 10.372052 	 43.141213 	 41.395272 	 C 	 1  ala 	 1.000000 
6009 	 C 	 10.620026 	 43.944732 	 40.854101 	 C 	 1  ala 	 1.000000 
6010 	 C 	 9.827062 	 44.128919 	 41.434861 	 C 	 1  ala 	 1.000000 
6011 	 C 	 10.218300 	 43.369122 	 40.915591 	 C 	 1  ala 	 1.000000 
6012 	 C 	 11.105999 	 43.776698 	 40.701413 	 C 	 1  ala 	 1.000000 
6013 	 C 	 10.707130 	 44.273983 	 41.471874 	 C 	 1  ala 	 1.000000 
6014 	 C 	 11.561200 	 43.820734 	 41.727079 	 C 	 1  ala 	 1.000000 
6015 	 C 	 11.420535 	 42.840977 	 41.869520 	 C 	 1  ala 	 1.000000 
6016 	 C 	 11.102289 	 41.897100 	 41.781113 	 C 	 1  ala 	 1.000000 
6017 	 C 	 10.232635 	 41.589386 	 41.395089 	 C 	 1  ala 	 1.000000 
6018 	 C 	 10.767551 	 41.170722 	 42.128973 	 C 	 1  ala 	 1.000000 
6019 	 C 	 10.884589 	 41.217760 	 41.136960 	 C 	 1  ala 	 1.000000 
6020 	 C 	 10.597811 	 40.261204 	 41.084424 	 C 	 1  ala 	 1.000000 
6021 	 C 	 10.923874 	 40.321703 	 42.027834 	 C 	 1  ala 	 1.000000 
6022 	 C 	 11.279914 	 40.518998 	 41.114429 	 C 	 1  ala 	 1.000000 
6023 	 C 	 11.496127 	 40.872071 	 40.204159 	 C 	 1  ala 	 1.000000 
6024 	 C 	 11.744849 	 39.923242 	 40.398736 	 C 	 1  ala 	 1.000000 
6025 	 C 	 11.846555 	 39.031714 	 40.840135 	 C 	 1  ala 	 1.000000 
6026 	 C 	 11.838956 	 39.423123 	 39.919950 	 C 	 1  ala 	 1.000000 
6027 	 C 	 12.339327 	 38.852800 	 40.571379 	 C 	 1  ala 	 1.000000 
6028 	 C 	 11.631512 	 38.560737 	 39.928187 	 C 	 1  ala 	 1.000000 
6029 	 C 	 12.557422 	 38.321550 	 40.220555 	 C 	 1  ala 	 1.000000 
6030 	 C 	 13.547544 	 38.279560 	 40.354329 	 C 	 1  ala 	 1.000000 
6031 	 C 	 13.341419 	 38.807778 	 39.530618 	 C 	 1  ala 	 1.000000 
6032 	 C 	 13.313979 	 39.600457 	 38.921598 	 C 	 1  ala 	 1.000000 
6033 	 C 	 14.159191 	 39.368827 	 39.403225 	 C 	 1  ala 	 1.000000 
6034 	 C 	 14.211169 	 39.676749 	 40.353215 	 C 	 1  ala 	 1.000000 
6035 	 C 	 13.665314 	 39.361241 	 41.129422 	 C 	 1  ala 	 1.000000 
6036 	 C 	 13.017110 	 40.112873 	 41.251411 	 C 	 1  ala 	 1.000000 
6037 	 C 	 13.927192 	 40.358716 	 40.917777 	 C 	 1  ala 	 1.000000 
6038 	 C 	 13.324035 	 41.146301 	 40.791639 	 C 	 1  ala 	 1.000000 
6039 	 C 	 14.000774 	 40.566976 	 40.337319 	 C 	 1  ala 	 1.000000 
6040 	 C 	 13.065645 	 40.213510 	 40.361728 	 C 	 1  ala 	 1.000000 
6041 	 C 	 12.746323 	 41.055033 	 40.797472 	 C 	 1  ala 	 1.000000 
6042 	 C 	 13.322955 	 40.500337 	 40.197631 	 C 	 1  ala 	 1.000000 
6043 	 C 	 13.069232 	 41.177609 	 40.888231 	 C 	 1  ala 	 1.000000 
6044 	 C 	 12.979073 	 40.330430 	 41.411833 	 C 	 1  ala 	 1.000000 
6045 	 C 	 12.327697 	 40.336544 	 40.653103 	 C 	 1  ala 	 1.000000 
6046 	 C 	 11.983595 	 41.274062 	 40.601600 	 C 	 1  ala 	 1.000000 
6047 	 C 	 11.724799 	 42.217031 	 40.392231 	 C 	 1  ala 	 1.000000 
6048 	 C 	 12.427405 	 42.012932 	 39.710551 	 C 	 1  ala 	 1.000000 
6049 	 C 	 11.670167 	 42.479125 	 40.167995 	 C 	 1  ala 	 1.000000 
6050 	 C 	 11.687675 	 41.516326 	 39.898344 	 C 	 1  ala 	 1.000000 
6051 	 C 	 12.519655 	 42.031640 	 39.692767 	 C 	 1  ala 	 1.000000 
6052 	 C 	 12.984328 	 42.460595 	 40.467413 	 C 	 1  ala 	 1.000000 
6053 	 C 	 12.844445 	 41.516603 	 40.168563 	 C 	 1  ala 	 1.000000 
6054 	 C 	 13.193676 	 41.126750 	 41.020650 	 C 	 1  ala 	 1.000000 
6055 	 C 	 13.974814 	 41.192369 	 41.641550 	 C 	 1  ala 	 1.000000 
6056 	 C 	 13.670444 	 41.859446 	 42.321525 	 C 	 1  ala 	 1.000000 
6057 	 C 	 14.318336 	 42.610521 	 42.194547 	 C 	 1  ala 	 1.000000 
6058 	 C 	 14.352570 	 42.095828 	 41.337856 	 C 	 1  ala 	 1.000000 
6059 	 C 	 14.946004 	 41.293548 	 41.402540 	 C 	 1  ala 	 1.000000 
6060 	 C 	 15.359039 	 40.413761 	 41.637862 	 C 	 1  ala 	 1.000000 
6061 	 C 	 15.549890 	 39.516111 	 42.035102 	 C 	 1  ala 	 1.000000 
6062 	 C 	 15.801369 	 40.356409 	 41.554835 	 C 	 1  ala 	 1.000000 
6063 	 C 	 14.952412 	 40.810239 	 41.825593 	 C 	 1  ala 	 1.000000 
6064 	 C 	 14.618526 	 40.485191 	 40.940797 	 C 	 1  ala 	 1.000000 
6065 	 C 	 13.836358 	 39.870012 	 41.039640 	 C 	 1  ala 	 1.000000 
6066 	 C 	 13.243640 	 40.670826 	 40.953719 	 C 	 1  ala 	 1.000000 
6067 	 C 	 12.608209 	 40.083926 	 41.455492 	 C 	 1  ala 	 1.000000 
6068 	 C 	 13.297666 	 40.806312 	 41.508492 	 C 	 1  ala 	 1.000000 
6069 	 C 	 12.370760 	 40.602887 	 41.823872 	 C 	 1  ala 	 1.000000 
6070 	 C 	 12.565592 	 41.576874 	 41.708158 	 C 	 1  ala 	 1.000000 
6071 	 C 	 12.082566 	 41.803044 	 40.862266 	 C 	 1  ala 	 1.000000 
6072 	 C 	 12.515834 	 42.591053 	 41.299670 	 C 	 1  ala 	 1.000000 
6073 	 C 	 12.702420 	 43.361813 	 41.908862 	 C 	 1  ala 	 1.000000 
6074 	 C 	 11.710191 	 43.452705 	 41.823895 	 C 	 1  ala 	 1.000000 
6075 	 C 	 12.156055 	 44.265039 	 41.447971 	 C 	 1  ala 	 1.000000 
6076 	 C 	 12.846965 	 43.844852 	 42.036261 	 C 	 1  ala 	 1.000000 
6077 	 C 	 12.647190 	 44.249882 	 41.144050 	 C 	 1  ala 	 1.000000 
6078 	 C 	 12.006780 	 43.536035 	 41.427419 	 C 	 1  ala 	 1.000000 
6079 	 C 	 11.156298 	 44.061182 	 41.457437 	 C 	 1  ala 	 1.000000 
6080 	 C 	 11.367738 	 44.708573 	 40.725195 	 C 	 1  ala 	 1.000000 
6081 	 C 	 10.523676 	 45.216793 	 40.896284 	 C 	 1  ala 	 1.000000 
6082 	 C 	 10.720812 	 46.131675 	 41.248603 	 C 	 1  ala 	 1.000000 
6083 	 C 	 11.145010 	 46.739737 	 40.577547 	 C 	 1  ala 	 1.000000 
6084 	 C 	 11.760475 	 47.502454 	 40.776210 	 C 	 1  ala 	 1.000000 
6085 	 C 	 12.701532 	 47.495846 	 40.438028 	 C 	 1  ala 	 1.000000 
6086 	 C 	 13.495856 	 47.662059 	 41.022340 	 C 	 1  ala 	 1.000000 
6087 	 C 	 13.924350 	 47.882952 	 40.146213 	 C 	 1  ala 	 1.000000 
6088 	 C 	 14.476755 	 48.716241 	 40.168084 	 C 	 1  ala 	 1.000000 
6089 	 C 	 14.028257 	 48.271964 	 40.943628 	 C 	 1  ala 	 1.000000 
6090 	 C 	 14.969555 	 48.602603 	 41.011722 	 C 	 1  ala 	 1.000000 
6091 	 C 	 14.418571 	 49.030202 	 40.295080 	 C 	 1  ala 	 1.000000 
6092 	 C 	 15.075592 	 49.319228 	 39.598813 	 C 	 1  ala 	 1.000000 
6093 	 C 	 14.324487 	 49.947454 	 39.801727 	 C 	 1  ala 	 1.000000 
6094 	 C 	 14.078424 	 49.380762 	 40.588056 	 C 	 1  ala 	 1.000000 
6095 	 C 	 14.372635 	 48.425419 	 40.560479 	 C 	 1  ala 	 1.000000 
6096 	 C 	 14.297275 	 47.438847 	 40.415575 	 C 	 1  ala 	 1.000000 
6097 	 C 	 13.705013 	 47.469269 	 39.610405 	 C 	 1  ala 	 1.000000 
6098 	 C 	 13.922383 	 47.318293 	 38.646062 	 C 	 1  ala 	 1.000000 
6099 	 C 	 14.808275 	 47.347982 	 38.183121 	 C 	 1  ala 	 1.000000 
6100 	 C 	 14.002077 	 47.819029 	 38.541115 	 C 	 1  ala 	 1.000000 
6101 	 C 	 14.060442 	 48.724448 	 38.120627 	 C 	 1  ala 	 1.000000 
6102 	 C 	 14.861014 	 48.701805 	 37.521818 	 C 	 1  ala 	 1.000000 
6103 	 C 	 15.370354 	 47.885717 	 37.248739 	 C 	 1  ala 	 1.000000 
6104 	 C 	 16.091534 	 48.509968 	 37.549091 	 C 	 1  ala 	 1.000000 
6105 	 C 	 15.406118 	 49.169688 	 37.240912 	 C 	 1  ala 	 1.000000 
6106 	 C 	 15.329463 	 50.066768 	 37.676080 	 C 	 1  ala 	 1.000000 
6107 	 C 	 15.713040 	 49.278042 	 37.195684 	 C 	 1  ala 	 1.000000 
6108 	 C 	 15.438054 	 48.319932 	 37.115635 	 C 	 1  ala 	 1.000000 
6109 	 C 	 14.521750 	 47.980899 	 36.902462 	 C 	 1  ala 	 1.000000 
6110 	 C 	 14.853125 	 47.058461 	 37.100701 	 C 	 1  ala 	 1.000000 
6111 	 C 	 14.332983 	 47.306608 	 36.283464 	 C 	 1  ala 	 1.000000 
6112 	 C 	 14.839003 	 48.145767 	 36.084073 	 C 	 1  ala 	 1.000000 
6113 	 C 	 14.684064 	 47.306573 	 35.562778 	 C 	 1  ala 	 1.000000 
6114 	 C 	 13.976780 	 47.880394 	 35.975670 	 C 	 1  ala 	 1.000000 
6115 	 C 	 14.702012 	 48.124723 	 36.619364 	 C 	 1  ala 	 1.000000 
6116 	 C 	 15.344275 	 48.531256 	 37.269155 	 C 	 1  ala 	 1.000000 
6117 	 C 	 14.689927 	 49.265909 	 37.089956 	 C 	 1  ala 	 1.000000 
6118 	 C 	 14.587896 	 49.208970 	 38.083106 	 C 	 1  ala 	 1.000000 
6119 	 C 	 14.942270 	 49.162581 	 37.149154 	 C 	 1  ala 	 1.000000 
6120 	 C 	 15.490400 	 49.293258 	 36.323032 	 C 	 1  ala 	 1.000000 
6121 	 C 	 16.422030 	 48.933884 	 36.269022 	 C 	 1  ala 	 1.000000 
6122 	 C 	 16.261955 	 48.237352 	 35.569580 	 C 	 1  ala 	 1.000000 
6123 	 C 	 16.311963 	 48.850436 	 36.358014 	 C 	 1  ala 	 1.000000 
6124 	 C 	 16.884334 	 48.081757 	 36.072489 	 C 	 1  ala 	 1.000000 
6125 	 C 	 17.353321 	 48.456725 	 36.872146 	 C 	 1  ala 	 1.000000 
6126 	 C 	 17.894063 	 47.877718 	 36.261941 	 C 	 1  ala 	 1.000000 
6127 	 C 	 17.037897 	 47.460648 	 35.956927 	 C 	 1  ala 	 1.000000 
6128 	 C 	 17.529549 	 47.796583 	 36.760312 	 C 	 1  ala 	 1.000000 
6129 	 C 	 17.701869 	 48.126537 	 37.688447 	 C 	 1  ala 	 1.000000 
6130 	 C 	 18.575267 	 47.857025 	 37.282815 	 C 	 1  ala 	 1.000000 
6131 	 C 	 18.055000 	 47.910905 	 38.135117 	 C 	 1  ala 	 1.000000 
6132 	 C 	 17.299019 	 47.728518 	 37.506445 	 C 	 1  ala 	 1.000000 
6133 	 C 	 16.351015 	 47.428077 	 37.611438 	 C 	 1  ala 	 1.000000 
6134 	 C 	 16.296999 	 46.453224 	 37.395235 	 C 	 1  ala 	 1.000000 
6135 	 C 	 16.805627 	 45.600262 	 37.277959 	 C 	 1  ala 	 1.000000 
6136 	 C 	 16.310142 	 44.734972 	 37.353911 	 C 	 1  ala 	 1.000000 
6137 	 C 	 15.951217 	 45.125026 	 38.201867 	 C 	 1  ala 	 1.000000 
6138 	 C 	 15.342650 	 45.757116 	 38.681563 	 C 	 1  ala 	 1.000000 
6139 	 C 	 15.481418 	 46.731970 	 38.507196 	 C 	 1  ala 	 1.000000 
6140 	 C 	 14.608640 	 46.244017 	 38.519859 	 C 	 1  ala 	 1.000000 
6141 	 C 	 15.165628 	 45.537267 	 38.956058 	 C 	 1  ala 	 1.000000 
6142 	 C 	 14.967324 	 45.054953 	 39.809316 	 C 	 1  ala 	 1.000000 
6143 	 C 	 14.600778 	 44.495996 	 40.553097 	 C 	 1  ala 	 1.000000 
6144 	 C 	 14.378361 	 43.829779 	 39.841279 	 C 	 1  ala 	 1.000000 
6145 	 C 	 14.635437 	 43.091138 	 39.218125 	 C 	 1  ala 	 1.000000 
6146 	 C 	 14.115383 	 42.455584 	 38.647497 	 C 	 1  ala 	 1.000000 
6147 	 C 	 13.778959 	 43.392976 	 38.557408 	 C 	 1  ala 	 1.000000 
6148 	 C 	 13.508696 	 43.016585 	 39.443573 	 C 	 1  ala 	 1.000000 
6149 	 C 	 14.422435 	 42.616484 	 39.514278 	 C 	 1  ala 	 1.000000 
6150 	 C 	 13.494845 	 42.827651 	 39.206082 	 C 	 1  ala 	 1.000000 
6151 	 C 	 14.441437 	 42.529129 	 39.327938 	 C 	 1  ala 	 1.000000 
6152 	 C 	 14.120166 	 41.651748 	 38.971584 	 C 	 1  ala 	 1.000000 
6153 	 C 	 13.247957 	 41.855892 	 39.416081 	 C 	 1  ala 	 1.000000 
6154 	 C 	 13.030285 	 40.883108 	 39.495516 	 C 	 1  ala 	 1.000000 
6155 	 C 	 13.151853 	 40.627181 	 40.454538 	 C 	 1  ala 	 1.000000 
6156 	 C 	 12.208788 	 40.793234 	 40.742727 	 C 	 1  ala 	 1.000000 
6157 	 C 	 12.399217 	 41.693066 	 40.350247 	 C 	 1  ala 	 1.000000 
6158 	 C 	 12.065741 	 41.971665 	 41.250900 	 C 	 1  ala 	 1.000000 
6159 	 C 	 11.203127 	 42.105951 	 40.763188 	 C 	 1  ala 	 1.000000 
6160 	 C 	 10.225514 	 42.016043 	 40.953424 	 C 	 1  ala 	 1.000000 
6161 	 C 	 9.413225 	 42.582404 	 41.092786 	 C 	 1  ala 	 1.000000 
6162 	 C 	 9.507640 	 43.424569 	 40.561897 	 C 	 1  ala 	 1.000000 
6163 	 C 	 9.705803 	 44.403766 	 40.518247 	 C 	 1  ala 	 1.000000 
6164 	 C 	 10.041322 	 44.128317 	 39.617384 	 C 	 1  ala 	 1.000000 
6165 	 C 	 10.651700 	 43.884017 	 40.370880 	 C 	 1  ala 	 1.000000 
6166 	 C 	 11.404610 	 44.474852 	 40.080985 	 C 	 1  ala 	 1.000000 
6167 	 C 	 11.687404 	 45.361218 	 39.714401 	 C 	 1  ala 	 1.000000 
6168 	 C 	 11.544507 	 45.235381 	 40.696106 	 C 	 1  ala 	 1.000000 
6169 	 C 	 11.207167 	 45.548704 	 39.808395 	 C 	 1  ala 	 1.000000 
6170 	 C 	 10.305640 	 45.980521 	 39.780396 	 C 	 1  ala 	 1.000000 
6171 	 C 	 10.497754 	 46.238168 	 38.833448 	 C 	 1  ala 	 1.000000 
6172 	 C 	 9.771039 	 46.723793 	 38.347595 	 C 	 1  ala 	 1.000000 
6173 	 C 	 10.284920 	 45.892132 	 38.557991 	 C 	 1  ala 	 1.000000 
6174 	 C 	 9.515715 	 46.400412 	 38.945257 	 C 	 1  ala 	 1.000000 
6175 	 C 	 9.893734 	 45.767595 	 39.621012 	 C 	 1  ala 	 1.000000 
6176 	 C 	 10.623319 	 46.451455 	 39.614626 	 C 	 1  ala 	 1.000000 
6177 	 C 	 10.796377 	 45.616116 	 39.092841 	 C 	 1  ala 	 1.000000 
6178 	 C 	 11.477317 	 46.348291 	 39.077352 	 C 	 1  ala 	 1.000000 
6179 	 C 	 11.103036 	 45.428349 	 39.194056 	 C 	 1  ala 	 1.000000 
6180 	 C 	 11.867419 	 45.960681 	 39.557842 	 C 	 1  ala 	 1.000000 
6181 	 C 	 12.381187 	 45.438857 	 40.238829 	 C 	 1  ala 	 1.000000 
6182 	 C 	 11.579969 	 45.095293 	 39.748916 	 C 	 1  ala 	 1.000000 
6183 	 C 	 10.712921 	 45.195408 	 39.260855 	 C 	 1  ala 	 1.000000 
6184 	 C 	 10.916125 	 44.250765 	 39.003256 	 C 	 1  ala 	 1.000000 
6185 	 C 	 10.399232 	 44.565390 	 39.799392 	 C 	 1  ala 	 1.000000 
6186 	 C 	 9.877528 	 44.225782 	 39.016775 	 C 	 1  ala 	 1.000000 
6187 	 C 	 10.811630 	 44.554469 	 38.877427 	 C 	 1  ala 	 1.000000 
6188 	 C 	 10.920718 	 44.481778 	 37.886056 	 C 	 1  ala 	 1.000000 
6189 	 C 	 11.856450 	 44.637733 	 38.202417 	 C 	 1  ala 	 1.000000 
6190 	 C 	 12.350025 	 44.737477 	 39.066381 	 C 	 1  ala 	 1.000000 
6191 	 C 	 12.191129 	 43.846081 	 38.641924 	 C 	 1  ala 	 1.000000 
6192 	 C 	 12.401105 	 44.816565 	 38.760541 	 C 	 1  ala 	 1.000000 
6193 	 C 	 12.779576 	 45.677749 	 38.421244 	 C 	 1  ala 	 1.000000 
6194 	 C 	 11.911708 	 45.826144 	 37.947130 	 C 	 1  ala 	 1.000000 
6195 	 C 	 12.817849 	 45.405188 	 37.905832 	 C 	 1  ala 	 1.000000 
6196 	 C 	 12.877441 	 44.537935 	 37.411544 	 C 	 1  ala 	 1.000000 
6197 	 C 	 12.351472 	 45.156272 	 36.827578 	 C 	 1  ala 	 1.000000 
6198 	 C 	 11.510275 	 44.617529 	 36.873864 	 C 	 1  ala 	 1.000000 
6199 	 C 	 11.938143 	 44.077167 	 36.149338 	 C 	 1  ala 	 1.000000 
6200 	 C 	 11.000817 	 44.425620 	 36.149219 	 C 	 1  ala 	 1.000000 
6201 	 C 	 11.453502 	 45.262832 	 36.456062 	 C 	 1  ala 	 1.000000 
6202 	 C 	 10.946366 	 45.278798 	 37.317780 	 C 	 1  ala 	 1.000000 
6203 	 C 	 10.726783 	 46.089697 	 36.775355 	 C 	 1  ala 	 1.000000 
6204 	 C 	 11.347775 	 46.779514 	 37.147538 	 C 	 1  ala 	 1.000000 
6205 	 C 	 12.048025 	 47.480361 	 37.011656 	 C 	 1  ala 	 1.000000 
6206 	 C 	 13.017986 	 47.707096 	 36.923528 	 C 	 1  ala 	 1.000000 
6207 	 C 	 13.346760 	 47.433388 	 37.827404 	 C 	 1  ala 	 1.000000 
6208 	 C 	 12.651591 	 48.079108 	 37.511515 	 C 	 1  ala 	 1.000000 
6209 	 C 	 12.683773 	 47.084587 	 37.610973 	 C 	 1  ala 	 1.000000 
6210 	 C 	 12.113749 	 46.291719 	 37.826457 	 C 	 1  ala 	 1.000000 
6211 	 C 	 11.114362 	 46.272569 	 37.797166 	 C 	 1  ala 	 1.000000 
6212 	 C 	 10.682326 	 46.044161 	 36.924712 	 C 	 1  ala 	 1.000000 
6213 	 C 	 10.498708 	 47.017338 	 37.063321 	 C 	 1  ala 	 1.000000 
6214 	 C 	 9.978284 	 46.743369 	 36.254556 	 C 	 1  ala 	 1.000000 
6215 	 C 	 9.622931 	 46.293860 	 37.074109 	 C 	 1  ala 	 1.000000 
6216 	 C 	 8.701927 	 45.909032 	 37.013611 	 C 	 1  ala 	 1.000000 
6217 	 C 	 8.207993 	 46.444002 	 36.328165 	 C 	 1  ala 	 1.000000 
6218 	 C 	 8.463143 	 46.862833 	 37.199645 	 C 	 1  ala 	 1.000000 
6219 	 C 	 8.264801 	 47.819047 	 36.984434 	 C 	 1  ala 	 1.000000 
6220 	 C 	 9.246825 	 47.720554 	 37.145454 	 C 	 1  ala 	 1.000000 
6221 	 C 	 8.803146 	 47.840265 	 38.033608 	 C 	 1  ala 	 1.000000 
6222 	 C 	 8.111893 	 47.122474 	 38.116946 	 C 	 1  ala 	 1.000000 
6223 	 C 	 8.498807 	 47.885598 	 37.599318 	 C 	 1  ala 	 1.000000 
6224 	 C 	 9.203124 	 47.201911 	 37.408246 	 C 	 1  ala 	 1.000000 
6225 	 C 	 9.898142 	 46.623471 	 37.835278 	 C 	 1  ala 	 1.000000 
6226 	 C 	 10.353306 	 47.190158 	 37.148481 	 C 	 1  ala 	 1.000000 
6227 	 C 	 10.887027 	 47.805291 	 36.568175 	 C 	 1  ala 	 1.000000 
6228 	 C 	 10.089001 	 47.432418 	 37.041589 	 C 	 1  ala 	 1.000000 
6229 	 C 	 10.057815 	 46.689131 	 36.373343 	 C 	 1  ala 	 1.000000 
6230 	 C 	 10.330896 	 45.894473 	 35.831176 	 C 	 1  ala 	 1.000000 
6231 	 C 	 10.188098 	 46.880161 	 35.920774 	 C 	 1  ala 	 1.000000 
6232 	 C 	 10.670709 	 46.663715 	 36.769442 	 C 	 1  ala 	 1.000000 
6233 	 C 	 11.637109 	 46.538614 	 36.993989 	 C 	 1  ala 	 1.000000 
6234 	 C 	 12.297865 	 46.090288 	 37.595991 	 C 	 1  ala 	 1.000000 
6235 	 C 	 11.436592 	 45.637337 	 37.365677 	 C 	 1  ala 	 1.000000 
6236 	 C 	 10.706919 	 44.967339 	 37.229003 	 C 	 1  ala 	 1.000000 
6237 	 C 	 10.107469 	 44.539446 	 37.905441 	 C 	 1  ala 	 1.000000 
6238 	 C 	 11.033101 	 44.457907 	 38.274974 	 C 	 1  ala 	 1.000000 
6239 	 C 	 10.650189 	 45.187132 	 37.707869 	 C 	 1  ala 	 1.000000 
6240 	 C 	 10.008173 	 44.676027 	 37.136391 	 C 	 1  ala 	 1.000000 
6241 	 C 	 9.976819 	 43.676639 	 37.120896 	 C 	 1  ala 	 1.000000 
6242 	 C 	 9.032450 	 43.774383 	 37.434925 	 C 	 1  ala 	 1.000000 
6243 	 C 	 9.490163 	 43.177843 	 38.094196 	 C 	 1  ala 	 1.000000 
6244 	 C 	 10.263948 	 42.556046 	 38.215126 	 C 	 1  ala 	 1.000000 
6245 	 C 	 10.596691 	 42.128915 	 39.055864 	 C 	 1  ala 	 1.000000 
6246 	 C 	 10.188663 	 41.222959 	 38.942919 	 C 	 1  ala 	 1.000000 
6247 	 C 	 9.671135 	 40.591052 	 38.365981 	 C 	 1  ala 	 1.000000 
6248 	 C 	 9.171126 	 40.231753 	 37.578012 	 C 	 1  ala 	 1.000000 
6249 	 C 	 9.108761 	 39.552441 	 36.846816 	 C 	 1  ala 	 1.000000 
6250 	 C 	 9.904566 	 39.155985 	 37.304548 	 C 	 1  ala 	 1.000000 
6251 	 C 	 9.193270 	 38.488865 	 37.525930 	 C 	 1  ala 	 1.000000 
6252 	 C 	 9.136387 	 38.919898 	 36.625389 	 C 	 1  ala 	 1.000000 
6253 	 C 	 8.878267 	 39.841725 	 36.336236 	 C 	 1  ala 	 1.000000 
6254 	 C 	 9.681782 	 39.980674 	 35.757396 	 C 	 1  ala 	 1.000000 
6255 	 C 	 9.497323 	 40.199660 	 34.799262 	 C 	 1  ala 	 1.000000 
6256 	 C 	 9.736970 	 40.494589 	 35.724241 	 C 	 1  ala 	 1.000000 
6257 	 C 	 10.614094 	 40.474438 	 35.244401 	 C 	 1  ala 	 1.000000 
6258 	 C 	 11.456502 	 40.848766 	 35.631994 	 C 	 1  ala 	 1.000000 
6259 	 C 	 11.023728 	 40.121417 	 35.099386 	 C 	 1  ala 	 1.000000 
6260 	 C 	 11.411879 	 39.238558 	 34.835006 	 C 	 1  ala 	 1.000000 
6261 	 C 	 10.548843 	 39.299952 	 35.336403 	 C 	 1  ala 	 1.000000 
6262 	 C 	 9.775594 	 39.843155 	 35.663538 	 C 	 1  ala 	 1.000000 
6263 	 C 	 10.212948 	 40.673144 	 36.009715 	 C 	 1  ala 	 1.000000 
6264 	 C 	 9.249456 	 40.419384 	 36.095087 	 C 	 1  ala 	 1.000000 
6265 	 C 	 9.728307 	 40.866224 	 36.850756 	 C 	 1  ala 	 1.000000 
6266 	 C 	 10.666439 	 40.609994 	 36.617829 	 C 	 1  ala 	 1.000000 
6267 	 C 	 10.760226 	 40.927964 	 37.561279 	 C 	 1  ala 	 1.000000 
6268 	 C 	 10.078070 	 41.382250 	 38.134242 	 C 	 1  ala 	 1.000000 
6269 	 C 	 9.813554 	 41.465499 	 37.173461 	 C 	 1  ala 	 1.000000 
6270 	 C 	 9.621908 	 40.564663 	 36.783889 	 C 	 1  ala 	 1.000000 
6271 	 C 	 8.760667 	 40.701049 	 36.294335 	 C 	 1  ala 	 1.000000 
6272 	 C 	 9.633496 	 40.961331 	 35.881511 	 C 	 1  ala 	 1.000000 
6273 	 C 	 9.223229 	 40.899225 	 36.791359 	 C 	 1  ala 	 1.000000 
6274 	 C 	 8.296324 	 40.889953 	 37.166541 	 C 	 1  ala 	 1.000000 
6275 	 C 	 8.485795 	 41.448977 	 36.359328 	 C 	 1  ala 	 1.000000 
6276 	 C 	 8.332404 	 41.978249 	 37.193800 	 C 	 1  ala 	 1.000000 
6277 	 C 	 8.249012 	 42.351267 	 38.117869 	 C 	 1  ala 	 1.000000 
6278 	 C 	 8.584782 	 41.950610 	 37.265383 	 C 	 1  ala 	 1.000000 
6279 	 C 	 8.412324 	 41.235970 	 37.943283 	 C 	 1  ala 	 1.000000 
6280 	 C 	 7.741696 	 41.307463 	 38.681624 	 C 	 1  ala 	 1.000000 
6281 	 C 	 6.744878 	 41.256709 	 38.620170 	 C 	 1  ala 	 1.000000 
6282 	 C 	 7.620514 	 41.594095 	 38.274583 	 C 	 1  ala 	 1.000000 
6283 	 C 	 6.848288 	 42.127862 	 38.619197 	 C 	 1  ala 	 1.000000 
6284 	 C 	 6.894407 	 41.146699 	 38.806789 	 C 	 1  ala 	 1.000000 
6285 	 C 	 6.817847 	 42.137550 	 38.917929 	 C 	 1  ala 	 1.000000 
6286 	 C 	 5.947709 	 41.807232 	 38.552211 	 C 	 1  ala 	 1.000000 
6287 	 C 	 5.508240 	 41.078165 	 38.027494 	 C 	 1  ala 	 1.000000 
6288 	 C 	 5.572899 	 42.006317 	 38.394036 	 C 	 1  ala 	 1.000000 
6289 	 C 	 5.142850 	 41.280053 	 37.857754 	 C 	 1  ala 	 1.000000 
6290 	 C 	 4.870601 	 40.371222 	 38.173836 	 C 	 1  ala 	 1.000000 
6291 	 C 	 4.946656 	 40.807569 	 39.070394 	 C 	 1  ala 	 1.000000 
6292 	 C 	 4.886899 	 41.240115 	 38.170765 	 C 	 1  ala 	 1.000000 
6293 	 C 	 5.395154 	 41.823150 	 38.804600 	 C 	 1  ala 	 1.000000 
6294 	 C 	 5.109192 	 42.396152 	 38.036555 	 C 	 1  ala 	 1.000000 
6295 	 C 	 6.005973 	 42.246434 	 37.620179 	 C 	 1  ala 	 1.000000 
6296 	 C 	 6.400530 	 43.140304 	 37.407290 	 C 	 1  ala 	 1.000000 
6297 	 C 	 6.974249 	 42.331561 	 37.536828 	 C 	 1  ala 	 1.000000 
6298 	 C 	 6.427029 	 43.151823 	 37.370333 	 C 	 1  ala 	 1.000000 
6299 	 C 	 6.881211 	 44.042727 	 37.367187 	 C 	 1  ala 	 1.000000 
6300 	 C 	 7.019237 	 43.381958 	 36.629398 	 C 	 1  ala 	 1.000000 
6301 	 C 	 6.315693 	 42.888328 	 37.140627 	 C 	 1  ala 	 1.000000 
6302 	 C 	 7.296722 	 42.719820 	 37.044779 	 C 	 1  ala 	 1.000000 
6303 	 C 	 6.557615 	 42.113844 	 37.338914 	 C 	 1  ala 	 1.000000 
6304 	 C 	 5.563141 	 42.017356 	 37.380266 	 C 	 1  ala 	 1.000000 
6305 	 C 	 6.214623 	 42.758718 	 37.541365 	 C 	 1  ala 	 1.000000 
6306 	 C 	 5.905605 	 43.057753 	 36.638544 	 C 	 1  ala 	 1.000000 
6307 	 C 	 5.896542 	 44.057391 	 36.663852 	 C 	 1  ala 	 1.000000 
6308 	 C 	 6.446040 	 43.543543 	 37.322648 	 C 	 1  ala 	 1.000000 
6309 	 C 	 7.197118 	 43.826665 	 36.726221 	 C 	 1  ala 	 1.000000 
6310 	 C 	 7.301160 	 43.293322 	 35.886745 	 C 	 1  ala 	 1.000000 
6311 	 C 	 7.686168 	 43.962970 	 35.251654 	 C 	 1  ala 	 1.000000 
6312 	 C 	 6.808599 	 43.959548 	 35.731092 	 C 	 1  ala 	 1.000000 
6313 	 C 	 7.419529 	 44.399409 	 35.072847 	 C 	 1  ala 	 1.000000 
6314 	 C 	 6.834789 	 45.210002 	 35.104771 	 C 	 1  ala 	 1.000000 
6315 	 C 	 6.386260 	 46.018480 	 35.485803 	 C 	 1  ala 	 1.000000 
6316 	 C 	 6.534041 	 46.087542 	 36.472409 	 C 	 1  ala 	 1.000000 
6317 	 C 	 6.121059 	 46.960190 	 36.733044 	 C 	 1  ala 	 1.000000 
6318 	 C 	 6.798269 	 46.224871 	 36.759344 	 C 	 1  ala 	 1.000000 
6319 	 C 	 7.764424 	 46.242342 	 36.501976 	 C 	 1  ala 	 1.000000 
6320 	 C 	 7.846800 	 45.987522 	 37.465449 	 C 	 1  ala 	 1.000000 
6321 	 C 	 8.155461 	 46.932477 	 37.574023 	 C 	 1  ala 	 1.000000 
6322 	 C 	 8.630648 	 47.097114 	 38.438368 	 C 	 1  ala 	 1.000000 
6323 	 C 	 9.001896 	 46.843754 	 39.331667 	 C 	 1  ala 	 1.000000 
6324 	 C 	 9.060242 	 46.524863 	 38.385673 	 C 	 1  ala 	 1.000000 
6325 	 C 	 9.102582 	 45.981870 	 37.547004 	 C 	 1  ala 	 1.000000 
6326 	 C 	 8.290478 	 46.504811 	 37.805885 	 C 	 1  ala 	 1.000000 
6327 	 C 	 7.683468 	 45.749456 	 38.052821 	 C 	 1  ala 	 1.000000 
6328 	 C 	 7.256942 	 45.685854 	 37.150585 	 C 	 1  ala 	 1.000000 
6329 	 C 	 7.305060 	 45.387658 	 36.197294 	 C 	 1  ala 	 1.000000 
6330 	 C 	 6.644198 	 44.640940 	 36.272624 	 C 	 1  ala 	 1.000000 
6331 	 C 	 7.475245 	 44.279200 	 35.850127 	 C 	 1  ala 	 1.000000 
6332 	 C 	 7.230926 	 43.463208 	 35.326231 	 C 	 1  ala 	 1.000000 
6333 	 C 	 6.891473 	 42.584354 	 35.661472 	 C 	 1  ala 	 1.000000 
6334 	 C 	 6.480549 	 42.063275 	 36.409548 	 C 	 1  ala 	 1.000000 
6335 	 C 	 5.883977 	 41.526241 	 37.005951 	 C 	 1  ala 	 1.000000 
6336 	 C 	 6.871528 	 41.628703 	 37.125303 	 C 	 1  ala 	 1.000000 
6337 	 C 	 6.886824 	 40.791372 	 37.671785 	 C 	 1  ala 	 1.000000 
6338 	 C 	 5.912054 	 40.915574 	 37.857249 	 C 	 1  ala 	 1.000000 
6339 	 C 	 6.873288 	 41.067163 	 37.626923 	 C 	 1  ala 	 1.000000 
6340 	 C 	 6.778408 	 40.879814 	 38.604624 	 C 	 1  ala 	 1.000000 
6341 	 C 	 6.873282 	 41.172161 	 37.653029 	 C 	 1  ala 	 1.000000 
6342 	 C 	 7.867599 	 41.149322 	 37.549045 	 C 	 1  ala 	 1.000000 
6343 	 C 	 7.035070 	 41.196103 	 38.101047 	 C 	 1  ala 	 1.000000 
6344 	 C 	 6.364665 	 41.917339 	 37.926757 	 C 	 1  ala 	 1.000000 
6345 	 C 	 6.996286 	 41.848914 	 38.699009 	 C 	 1  ala 	 1.000000 
6346 	 C 	 7.475811 	 41.222545 	 38.084420 	 C 	 1  ala 	 1.000000 
6347 	 C 	 7.986838 	 42.069779 	 37.939345 	 C 	 1  ala 	 1.000000 
6348 	 C 	 8.242226 	 42.285148 	 36.996799 	 C 	 1  ala 	 1.000000 
6349 	 C 	 9.071841 	 42.691109 	 37.380119 	 C 	 1  ala 	 1.000000 
6350 	 C 	 8.805384 	 42.986954 	 36.462799 	 C 	 1  ala 	 1.000000 
6351 	 C 	 7.988557 	 42.581883 	 36.052054 	 C 	 1  ala 	 1.000000 
6352 	 C 	 7.091042 	 42.600866 	 35.611479 	 C 	 1  ala 	 1.000000 
6353 	 C 	 6.965308 	 42.883411 	 34.660501 	 C 	 1  ala 	 1.000000 
6354 	 C 	 7.288351 	 42.121857 	 35.222354 	 C 	 1  ala 	 1.000000 
6355 	 C 	 7.460723 	 41.378158 	 35.868264 	 C 	 1  ala 	 1.000000 
6356 	 C 	 6.758441 	 42.050098 	 35.633110 	 C 	 1  ala 	 1.000000 
6357 	 C 	 6.261283 	 41.472499 	 36.280576 	 C 	 1  ala 	 1.000000 
6358 	 C 	 6.276576 	 42.265298 	 36.889868 	 C 	 1  ala 	 1.000000 
6359 	 C 	 6.119992 	 41.280800 	 36.968899 	 C 	 1  ala 	 1.000000 
6360 	 C 	 6.597545 	 41.737432 	 37.719519 	 C 	 1  ala 	 1.000000 
6361 	 C 	 6.035891 	 41.421371 	 38.484142 	 C 	 1  ala 	 1.000000 
6362 	 C 	 5.676953 	 42.354051 	 38.519802 	 C 	 1  ala 	 1.000000 
6363 	 C 	 6.599802 	 42.255714 	 38.147405 	 C 	 1  ala 	 1.000000 
6364 	 C 	 6.462078 	 42.862254 	 38.930439 	 C 	 1  ala 	 1.000000 
6365 	 C 	 7.368929 	 42.982436 	 38.526486 	 C 	 1  ala 	 1.000000 
6366 	 C 	 7.182921 	 43.613391 	 39.279677 	 C 	 1  ala 	 1.000000 
6367 	 C 	 6.605630 	 44.371829 	 39.582178 	 C 	 1  ala 	 1.000000 
6368 	 C 	 5.853329 	 43.729287 	 39.727719 	 C 	 1  ala 	 1.000000 
6369 	 C 	 6.297679 	 44.598237 	 39.509823 	 C 	 1  ala 	 1.000000 
6370 	 C 	 6.988054 	 44.595438 	 40.233269 	 C 	 1  ala 	 1.000000 
6371 	 C 	 7.496261 	 44.652193 	 41.092631 	 C 	 1  ala 	 1.000000 
6372 	 C 	 8.113672 	 43.917803 	 40.810719 	 C 	 1  ala 	 1.000000 
6373 	 C 	 7.433345 	 44.360473 	 40.226597 	 C 	 1  ala 	 1.000000 
6374 	 C 	 6.951104 	 44.916065 	 39.549278 	 C 	 1  ala 	 1.000000 
6375 	 C 	 6.018784 	 44.892864 	 39.188390 	 C 	 1  ala 	 1.000000 
6376 	 C 	 6.527413 	 44.147564 	 38.757317 	 C 	 1  ala 	 1.000000 
6377 	 C 	 6.479541 	 45.114883 	 39.006316 	 C 	 1  ala 	 1.000000 
6378 	 C 	 7.065810 	 45.903669 	 38.821638 	 C 	 1  ala 	 1.000000 
6379 	 C 	 7.573034 	 46.087449 	 39.663629 	 C 	 1  ala 	 1.000000 
6380 	 C 	 6.987645 	 45.551579 	 40.272039 	 C 	 1  ala 	 1.000000 
6381 	 C 	 7.199792 	 46.480211 	 39.967678 	 C 	 1  ala 	 1.000000 
6382 	 C 	 7.178269 	 45.964211 	 39.111359 	 C 	 1  ala 	 1.000000 
6383 	 C 	 6.653622 	 46.459854 	 38.419201 	 C 	 1  ala 	 1.000000 
6384 	 C 	 7.134354 	 46.785103 	 37.604886 	 C 	 1  ala 	 1.000000 
6385 	 C 	 6.840609 	 46.214151 	 36.838253 	 C 	 1  ala 	 1.000000 
6386 	 C 	 7.489724 	 45.487124 	 36.614461 	 C 	 1  ala 	 1.000000 
6387 	 C 	 7.184800 	 44.537318 	 36.684381 	 C 	 1  ala 	 1.000000 
6388 	 C 	 7.267410 	 43.609490 	 36.320636 	 C 	 1  ala 	 1.000000 
6389 	 C 	 6.377394 	 43.951467 	 36.019100 	 C 	 1  ala 	 1.000000 
6390 	 C 	 6.949399 	 44.707918 	 36.336262 	 C 	 1  ala 	 1.000000 
6391 	 C 	 7.166239 	 45.262755 	 35.533059 	 C 	 1  ala 	 1.000000 
6392 	 C 	 7.807439 	 45.288300 	 34.766110 	 C 	 1  ala 	 1.000000 
6393 	 C 	 8.182480 	 46.178627 	 35.024302 	 C 	 1  ala 	 1.000000 
6394 	 C 	 9.089063 	 45.932668 	 34.681355 	 C 	 1  ala 	 1.000000 
6395 	 C 	 9.359627 	 46.593505 	 35.381419 	 C 	 1  ala 	 1.000000 
6396 	 C 	 9.172302 	 45.616857 	 35.276215 	 C 	 1  ala 	 1.000000 
6397 	 C 	 9.659289 	 46.411296 	 34.913297 	 C 	 1  ala 	 1.000000 
6398 	 C 	 10.181651 	 45.961106 	 34.189097 	 C 	 1  ala 	 1.000000 
6399 	 C 	 9.192948 	 45.945398 	 34.338156 	 C 	 1  ala 	 1.000000 
6400 	 C 	 8.425058 	 45.383458 	 34.030633 	 C 	 1  ala 	 1.000000 
6401 	 C 	 7.980229 	 46.196375 	 33.654743 	 C 	 1  ala 	 1.000000 
6402 	 C 	 8.079969 	 45.231038 	 33.895941 	 C 	 1  ala 	 1.000000 
6403 	 C 	 8.941769 	 45.330398 	 34.393364 	 C 	 1  ala 	 1.000000 
6404 	 C 	 9.451645 	 45.187935 	 35.241733 	 C 	 1  ala 	 1.000000 
6405 	 C 	 8.700604 	 45.781390 	 35.531128 	 C 	 1  ala 	 1.000000 
6406 	 C 	 9.374834 	 45.061346 	 35.695296 	 C 	 1  ala 	 1.000000 
6407 	 C 	 9.895681 	 44.207707 	 35.699534 	 C 	 1  ala 	 1.000000 
6408 	 C 	 9.976540 	 43.699673 	 34.842001 	 C 	 1  ala 	 1.000000 
6409 	 C 	 10.460679 	 44.572766 	 34.899597 	 C 	 1  ala 	 1.000000 
6410 	 C 	 10.114862 	 45.499216 	 35.048261 	 C 	 1  ala 	 1.000000 
6411 	 C 	 10.620096 	 44.904232 	 35.673347 	 C 	 1  ala 	 1.000000 
6412 	 C 	 11.145784 	 45.489700 	 36.290501 	 C 	 1  ala 	 1.000000 
6413 	 C 	 11.703277 	 45.615412 	 35.469892 	 C 	 1  ala 	 1.000000 
6414 	 C 	 11.260896 	 44.797056 	 35.836762 	 C 	 1  ala 	 1.000000 
6415 	 C 	 12.198505 	 44.497466 	 36.013211 	 C 	 1  ala 	 1.000000 
6416 	 C 	 11.963885 	 44.904661 	 35.130519 	 C 	 1  ala 	 1.000000 
6417 	 C 	 12.148525 	 45.422184 	 34.295008 	 C 	 1  ala 	 1.000000 
6418 	 C 	 12.487981 	 44.826211 	 35.022735 	 C 	 1  ala 	 1.000000 
6419 	 C 	 12.520589 	 44.914275 	 34.027154 	 C 	 1  ala 	 1.000000 
6420 	 C 	 12.280381 	 45.222041 	 34.947795 	 C 	 1  ala 	 1.000000 
6421 	 C 	 12.931966 	 44.752032 	 34.352372 	 C 	 1  ala 	 1.000000 
6422 	 C 	 12.027235 	 44.934454 	 33.967425 	 C 	 1  ala 	 1.000000 
6423 	 C 	 12.367154 	 45.341342 	 34.815303 	 C 	 1  ala 	 1.000000 
6424 	 C 	 11.949104 	 45.068256 	 33.948898 	 C 	 1  ala 	 1.000000 
6425 	 C 	 11.042303 	 44.992452 	 33.534209 	 C 	 1  ala 	 1.000000 
6426 	 C 	 10.429699 	 44.395481 	 33.016192 	 C 	 1  ala 	 1.000000 
6427 	 C 	 10.952709 	 45.215902 	 32.785170 	 C 	 1  ala 	 1.000000 
6428 	 C 	 11.945934 	 45.237535 	 32.670998 	 C 	 1  ala 	 1.000000 
6429 	 C 	 11.444896 	 44.436343 	 32.343811 	 C 	 1  ala 	 1.000000 
6430 	 C 	 11.271384 	 45.128812 	 31.643540 	 C 	 1  ala 	 1.000000 
6431 	 C 	 11.631366 	 44.198362 	 31.711916 	 C 	 1  ala 	 1.000000 
6432 	 C 	 12.594307 	 44.463561 	 31.662788 	 C 	 1  ala 	 1.000000 
6433 	 C 	 13.424314 	 44.403905 	 31.108234 	 C 	 1  ala 	 1.000000 
6434 	 C 	 13.095178 	 45.240978 	 31.545245 	 C 	 1  ala 	 1.000000 
6435 	 C 	 12.581945 	 45.150829 	 32.398747 	 C 	 1  ala 	 1.000000 
6436 	 C 	 13.049845 	 44.268276 	 32.445317 	 C 	 1  ala 	 1.000000 
6437 	 C 	 13.107415 	 44.448649 	 31.463405 	 C 	 1  ala 	 1.000000 
6438 	 C 	 13.788232 	 44.148338 	 30.795348 	 C 	 1  ala 	 1.000000 
6439 	 C 	 13.729907 	 43.191223 	 30.511570 	 C 	 1  ala 	 1.000000 
6440 	 C 	 14.381737 	 42.922405 	 31.220692 	 C 	 1  ala 	 1.000000 
6441 	 C 	 14.010015 	 42.002880 	 31.348350 	 C 	 1  ala 	 1.000000 
6442 	 C 	 14.610968 	 41.246459 	 31.606581 	 C 	 1  ala 	 1.000000 
6443 	 C 	 14.794461 	 40.505567 	 30.960510 	 C 	 1  ala 	 1.000000 
6444 	 C 	 13.877232 	 40.710676 	 31.302006 	 C 	 1  ala 	 1.000000 
6445 	 C 	 13.287820 	 41.274210 	 30.723194 	 C 	 1  ala 	 1.000000 
6446 	 C 	 13.306116 	 41.174142 	 29.728382 	 C 	 1  ala 	 1.000000 
6447 	 C 	 13.480883 	 41.726146 	 30.543703 	 C 	 1  ala 	 1.000000 
6448 	 C 	 14.324121 	 41.847854 	 31.067283 	 C 	 1  ala 	 1.000000 
6449 	 C 	 14.357847 	 40.954374 	 30.619448 	 C 	 1  ala 	 1.000000 
6450 	 O 	 14.604593 	 41.282161 	 31.531409 	 O 	 1  ala 	 1.000000 
6451 	 C 	 14.015139 	 40.548244 	 31.193905 	 C 	 1  ala 	 1.000000 
6452 	 C 	 13.240551 	 40.835528 	 31.757359 	 C 	 1  ala 	 1.000000 
6453 	 C 	 12.893354 	 40.195026 	 32.442349 	 C 	 1  ala 	 1.000000 
6454 	 C 	 12.121511 	 40.374008 	 33.052450 	 C 	 1  ala 	 1.000000 
6455 	 C 	 12.005922 	 40.697579 	 32.113333 	 C 	 1  ala 	 1.000000 
6456 	 C 	 11.476286 	 40.150377 	 32.761450 	 C 	 1  ala 	 1.000000 
6457 	 C 	 11.101142 	 39.588734 	 33.498895 	 C 	 1  ala 	 1.000000 
6458 	 C 	 11.156717 	 39.749425 	 34.484334 	 C 	 1  ala 	 1.000000 
6459 	 C 	 11.635969 	 39.408048 	 35.292900 	 C 	 1  ala 	 1.000000 
6460 	 C 	 11.784413 	 39.028489 	 36.206081 	 C 	 1  ala 	 1.000000 
6461 	 C 	 12.391953 	 39.761841 	 36.511187 	 C 	 1  ala 	 1.000000 
6462 	 C 	 12.224624 	 39.391861 	 35.597340 	 C 	 1  ala 	 1.000000 
6463 	 C 	 11.565393 	 39.376702 	 34.845552 	 C 	 1  ala 	 1.000000 
6464 	 C 	 11.208581 	 40.002465 	 35.539170 	 C 	 1  ala 	 1.000000 
6465 	 C 	 10.304384 	 39.581527 	 35.466789 	 C 	 1  ala 	 1.000000 
6466 	 C 	 10.143971 	 38.716749 	 34.990947 	 C 	 1  ala 	 1.000000 
6467 	 C 	 10.722966 	 39.318449 	 34.440745 	 C 	 1  ala 	 1.000000 
6468 	 C 	 11.679122 	 39.540244 	 34.631988 	 C 	 1  ala 	 1.000000 
6469 	 C 	 12.629241 	 39.623865 	 34.932456 	 C 	 1  ala 	 1.000000 
6470 	 C 	 12.369681 	 38.838277 	 35.494132 	 C 	 1  ala 	 1.000000 
6471 	 C 	 12.177889 	 38.701517 	 34.522272 	 C 	 1  ala 	 1.000000 
6472 	 C 	 11.712583 	 39.387577 	 33.962977 	 C 	 1  ala 	 1.000000 
6473 	 C 	 11.388728 	 38.442657 	 33.915612 	 C 	 1  ala 	 1.000000 
6474 	 C 	 10.518131 	 38.195673 	 34.341122 	 C 	 1  ala 	 1.000000 
6475 	 C 	 9.667732 	 37.670326 	 34.312234 	 C 	 1  ala 	 1.000000 
6476 	 C 	 9.603471 	 36.740578 	 33.949691 	 C 	 1  ala 	 1.000000 
6477 	 C 	 8.828916 	 36.873994 	 33.331416 	 C 	 1  ala 	 1.000000 
6478 	 C 	 8.320516 	 36.019535 	 33.438327 	 C 	 1  ala 	 1.000000 
6479 	 C 	 8.652133 	 35.572631 	 32.607480 	 C 	 1  ala 	 1.000000 
6480 	 C 	 8.632215 	 34.902667 	 33.349607 	 C 	 1  ala 	 1.000000 
6481 	 C 	 9.497227 	 34.832687 	 33.846455 	 C 	 1  ala 	 1.000000 
6482 	 C 	 9.592002 	 35.740791 	 34.254332 	 C 	 1  ala 	 1.000000 
6483 	 C 	 9.797298 	 35.489859 	 35.200317 	 C 	 1  ala 	 1.000000 
6484 	 C 	 10.611117 	 36.069547 	 35.241054 	 C 	 1  ala 	 1.000000 
6485 	 C 	 11.072348 	 36.249582 	 34.372231 	 C 	 1  ala 	 1.000000 
6486 	 C 	 10.710192 	 36.786788 	 35.133974 	 C 	 1  ala 	 1.000000 
6487 	 C 	 10.595349 	 36.029719 	 34.490813 	 C 	 1  ala 	 1.000000 
6488 	 C 	 9.720306 	 35.562292 	 34.616556 	 C 	 1  ala 	 1.000000 
6489 	 C 	 8.806728 	 35.647387 	 34.218896 	 C 	 1  ala 	 1.000000 
6490 	 C 	 9.660731 	 36.116348 	 33.993609 	 C 	 1  ala 	 1.000000 
6491 	 C 	 9.160866 	 35.591248 	 33.304838 	 C 	 1  ala 	 1.000000 
6492 	 C 	 9.195699 	 35.851265 	 34.269814 	 C 	 1  ala 	 1.000000 
6493 	 C 	 9.623407 	 36.400188 	 33.551657 	 C 	 1  ala 	 1.000000 
6494 	 C 	 9.969288 	 36.437848 	 32.614135 	 C 	 1  ala 	 1.000000 
6495 	 C 	 10.102766 	 36.187582 	 31.655203 	 C 	 1  ala 	 1.000000 
6496 	 C 	 9.710009 	 37.006046 	 32.074557 	 C 	 1  ala 	 1.000000 
6497 	 C 	 10.165885 	 36.126969 	 31.935275 	 C 	 1  ala 	 1.000000 
6498 	 C 	 10.130928 	 37.058361 	 31.572942 	 C 	 1  ala 	 1.000000 
6499 	 C 	 10.332219 	 37.801226 	 30.934479 	 C 	 1  ala 	 1.000000 
6500 	 C 	 9.486370 	 37.273257 	 30.858395 	 C 	 1  ala 	 1.000000 
6501 	 C 	 9.368329 	 36.653251 	 31.634062 	 C 	 1  ala 	 1.000000 
6502 	 C 	 9.821471 	 36.222168 	 32.414337 	 C 	 1  ala 	 1.000000 
6503 	 C 	 10.719189 	 36.390744 	 32.821381 	 C 	 1  ala 	 1.000000 
6504 	 C 	 9.956811 	 36.751583 	 32.284188 	 C 	 1  ala 	 1.000000 
6505 	 C 	 9.614658 	 37.557365 	 32.767558 	 C 	 1  ala 	 1.000000 
6506 	 C 	 10.459084 	 37.363482 	 33.266911 	 C 	 1  ala 	 1.000000 
6507 	 C 	 10.614808 	 37.394036 	 32.279583 	 C 	 1  ala 	 1.000000 
6508 	 C 	 9.833355 	 37.066553 	 31.748465 	 C 	 1  ala 	 1.000000 
6509 	 C 	 9.836975 	 38.047881 	 31.940769 	 C 	 1  ala 	 1.000000 
6510 	 C 	 9.801701 	 37.416262 	 31.166293 	 C 	 1  ala 	 1.000000 
6511 	 C 	 9.443982 	 36.870273 	 31.923876 	 C 	 1  ala 	 1.000000 
6512 	 C 	 9.750061 	 37.021645 	 32.863771 	 C 	 1  ala 	 1.000000 
6513 	 C 	 10.602496 	 36.683319 	 32.465160 	 C 	 1  ala 	 1.000000 
6514 	 C 	 10.380844 	 36.019465 	 33.179420 	 C 	 1  ala 	 1.000000 
6515 	 C 	 10.827755 	 36.912937 	 33.223895 	 C 	 1  ala 	 1.000000 
6516 	 C 	 10.464943 	 35.998283 	 33.045639 	 C 	 1  ala 	 1.000000 
6517 	 C 	 9.881354 	 36.788855 	 33.231165 	 C 	 1  ala 	 1.000000 
6518 	 C 	 10.417161 	 37.102347 	 32.447179 	 C 	 1  ala 	 1.000000 
6519 	 C 	 11.193734 	 37.346102 	 31.866215 	 C 	 1  ala 	 1.000000 
6520 	 C 	 10.354287 	 36.866796 	 32.122331 	 C 	 1  ala 	 1.000000 
6521 	 C 	 11.234549 	 36.488291 	 32.408463 	 C 	 1  ala 	 1.000000 
6522 	 C 	 11.222697 	 36.778197 	 31.451481 	 C 	 1  ala 	 1.000000 
6523 	 C 	 10.426453 	 37.012572 	 32.009212 	 C 	 1  ala 	 1.000000 
6524 	 C 	 10.547607 	 37.994370 	 32.155479 	 C 	 1  ala 	 1.000000 
6525 	 C 	 11.158282 	 37.801470 	 31.387453 	 C 	 1  ala 	 1.000000 
6526 	 C 	 10.763497 	 37.014248 	 30.913715 	 C 	 1  ala 	 1.000000 
6527 	 C 	 11.243019 	 36.236915 	 31.320916 	 C 	 1  ala 	 1.000000 
6528 	 C 	 10.876417 	 36.756860 	 32.092448 	 C 	 1  ala 	 1.000000 
6529 	 C 	 11.115710 	 36.978633 	 31.147167 	 C 	 1  ala 	 1.000000 
6530 	 C 	 10.366082 	 37.435493 	 30.668275 	 C 	 1  ala 	 1.000000 
6531 	 C 	 10.873298 	 38.199319 	 31.067403 	 C 	 1  ala 	 1.000000 
6532 	 C 	 9.922099 	 37.910366 	 30.959111 	 C 	 1  ala 	 1.000000 
6533 	 C 	 9.099565 	 38.467826 	 31.071693 	 C 	 1  ala 	 1.000000 
6534 	 C 	 10.089557 	 38.602490 	 31.029480 	 C 	 1  ala 	 1.000000 
6535 	 C 	 10.002227 	 38.821614 	 30.057699 	 C 	 1  ala 	 1.000000 
6536 	 C 	 9.623244 	 38.960043 	 30.972691 	 C 	 1  ala 	 1.000000 
6537 	 C 	 9.333690 	 39.588712 	 30.250934 	 C 	 1  ala 	 1.000000 
6538 	 C 	 9.194497 	 39.632982 	 31.240209 	 C 	 1  ala 	 1.000000 
6539 	 C 	 8.915272 	 39.528359 	 32.194718 	 C 	 1  ala 	 1.000000 
6540 	 C 	 9.148571 	 40.331039 	 31.645831 	 C 	 1  ala 	 1.000000 
6541 	 C 	 8.576160 	 40.353952 	 30.826184 	 C 	 1  ala 	 1.000000 
6542 	 C 	 8.269731 	 39.974706 	 31.699267 	 C 	 1  ala 	 1.000000 
6543 	 C 	 8.138587 	 38.995665 	 31.855086 	 C 	 1  ala 	 1.000000 
6544 	 C 	 8.308666 	 39.671229 	 31.137669 	 C 	 1  ala 	 1.000000 
6545 	 C 	 8.689274 	 39.402228 	 32.022416 	 C 	 1  ala 	 1.000000 
6546 	 C 	 9.547564 	 39.498210 	 31.518307 	 C 	 1  ala 	 1.000000 
6547 	 C 	 10.240715 	 40.209788 	 31.633192 	 C 	 1  ala 	 1.000000 
6548 	 C 	 10.292675 	 39.228346 	 31.448605 	 C 	 1  ala 	 1.000000 
6549 	 C 	 10.873605 	 38.512962 	 31.836866 	 C 	 1  ala 	 1.000000 
6550 	 N 	 11.560102 	 38.069921 	 31.260294 	 N 	 1  ala 	 1.000000 
6551 	 C 	 11.792516 	 38.709779 	 31.992800 	 C 	 1  ala 	 1.000000 
6552 	 C 	 10.876787 	 38.331535 	 32.128341 	 C 	 1  ala 	 1.000000 
6553 	 C 	 11.588975 	 39.012157 	 32.300216 	 C 	 1  ala 	 1.000000 
6554 	 C 	 12.512638 	 39.122650 	 32.667147 	 C 	 1  ala 	 1.000000 
6555 	 C 	 12.891694 	 38.375408 	 33.212992 	 C 	 1  ala 	 1.000000 
6556 	 C 	 13.083304 	 37.406864 	 33.054222 	 C 	 1  ala 	 1.000000 
6557 	 C 	 13.575602 	 38.128424 	 33.541043 	 C 	 1  ala 	 1.000000 
6558 	 C 	 14.225781 	 37.851516 	 32.833519 	 C 	 1  ala 	 1.000000 
6559 	 C 	 14.948733 	 37.259113 	 33.189047 	 C 	 1  ala 	 1.000000 
6560 	 C 	 15.734400 	 37.693963 	 33.629085 	 C 	 1  ala 	 1.000000 
6561 	 C 	 15.471054 	 38.349753 	 34.336607 	 C 	 1  ala 	 1.000000 
6562 	 C 	 16.233808 	 38.650023 	 34.909360 	 C 	 1  ala 	 1.000000 
6563 	 C 	 15.478421 	 38.025370 	 34.711370 	 C 	 1  ala 	 1.000000 
6564 	 C 	 15.174041 	 38.393703 	 35.589824 	 C 	 1  ala 	 1.000000 
6565 	 C 	 15.074458 	 37.414056 	 35.764107 	 C 	 1  ala 	 1.000000 
6566 	 C 	 14.476940 	 38.155069 	 35.457723 	 C 	 1  ala 	 1.000000 
6567 	 C 	 15.011834 	 38.929641 	 35.795254 	 C 	 1  ala 	 1.000000 
6568 	 C 	 14.054777 	 38.640325 	 35.776870 	 C 	 1  ala 	 1.000000 
6569 	 C 	 13.155224 	 38.456129 	 36.172947 	 C 	 1  ala 	 1.000000 
6570 	 C 	 12.668699 	 38.894198 	 36.928850 	 C 	 1  ala 	 1.000000 
6571 	 C 	 11.823865 	 38.614068 	 37.384681 	 C 	 1  ala 	 1.000000 
6572 	 C 	 12.151686 	 37.817147 	 37.892077 	 C 	 1  ala 	 1.000000 
6573 	 C 	 11.715913 	 37.705871 	 38.785229 	 C 	 1  ala 	 1.000000 
6574 	 C 	 11.190205 	 37.640673 	 39.633392 	 C 	 1  ala 	 1.000000 
6575 	 C 	 11.293216 	 37.890783 	 38.670670 	 C 	 1  ala 	 1.000000 
6576 	 C 	 10.351692 	 37.775838 	 38.353935 	 C 	 1  ala 	 1.000000 
6577 	 C 	 10.551126 	 38.039639 	 37.410201 	 C 	 1  ala 	 1.000000 
6578 	 C 	 11.209687 	 37.732323 	 38.097118 	 C 	 1  ala 	 1.000000 
6579 	 C 	 10.265260 	 38.017947 	 37.934398 	 C 	 1  ala 	 1.000000 
6580 	 C 	 10.424047 	 37.128750 	 38.363485 	 C 	 1  ala 	 1.000000 
6581 	 C 	 10.558538 	 38.105846 	 38.198573 	 C 	 1  ala 	 1.000000 
6582 	 C 	 10.909510 	 37.629634 	 37.392322 	 C 	 1  ala 	 1.000000 
6583 	 C 	 10.880971 	 38.084255 	 38.282550 	 C 	 1  ala 	 1.000000 
6584 	 C 	 10.371916 	 37.314071 	 37.898257 	 C 	 1  ala 	 1.000000 
6585 	 C 	 10.179355 	 36.469275 	 38.397496 	 C 	 1  ala 	 1.000000 
6586 	 C 	 10.167691 	 37.437223 	 38.648374 	 C 	 1  ala 	 1.000000 
6587 	 C 	 9.461051 	 37.489847 	 37.942761 	 C 	 1  ala 	 1.000000 
6588 	 C 	 8.922954 	 37.853771 	 38.703031 	 C 	 1  ala 	 1.000000 
6589 	 C 	 9.286531 	 37.994757 	 39.623864 	 C 	 1  ala 	 1.000000 
6590 	 C 	 9.264149 	 38.815181 	 40.195182 	 C 	 1  ala 	 1.000000 
6591 	 C 	 9.409116 	 38.995475 	 39.222310 	 C 	 1  ala 	 1.000000 
6592 	 C 	 10.187653 	 38.749420 	 38.644957 	 C 	 1  ala 	 1.000000 
6593 	 C 	 9.964641 	 37.873561 	 39.072901 	 C 	 1  ala 	 1.000000 
6594 	 C 	 10.568911 	 37.086219 	 38.950629 	 C 	 1  ala 	 1.000000 
6595 	 C 	 10.700725 	 37.318804 	 39.914231 	 C 	 1  ala 	 1.000000 
6596 	 C 	 10.282144 	 37.240707 	 39.009416 	 C 	 1  ala 	 1.000000 
6597 	 C 	 9.920531 	 38.118691 	 39.323072 	 C 	 1  ala 	 1.000000 
6598 	 C 	 10.735066 	 38.635131 	 39.587314 	 C 	 1  ala 	 1.000000 
6599 	 C 	 11.145326 	 39.515687 	 39.824608 	 C 	 1  ala 	 1.000000 
6600 	 C 	 11.328181 	 40.160968 	 40.566347 	 C 	 1  ala 	 1.000000 
6601 	 C 	 11.685554 	 39.395429 	 41.101356 	 C 	 1  ala 	 1.000000 
6602 	 C 	 11.773603 	 38.528539 	 41.592017 	 C 	 1  ala 	 1.000000 
6603 	 C 	 11.017769 	 38.205894 	 41.022267 	 C 	 1  ala 	 1.000000 
6604 	 C 	 10.554975 	 37.538320 	 41.605506 	 C 	 1  ala 	 1.000000 
6605 	 C 	 9.623380 	 37.185447 	 41.692747 	 C 	 1  ala 	 1.000000 
6606 	 C 	 8.752262 	 36.715220 	 41.834311 	 C 	 1  ala 	 1.000000 
6607 	 C 	 8.828262 	 36.412030 	 42.784206 	 C 	 1  ala 	 1.000000 
6608 	 C 	 8.579805 	 35.853608 	 41.992730 	 C 	 1  ala 	 1.000000 
6609 	 C 	 9.086900 	 34.998258 	 42.098708 	 C 	 1  ala 	 1.000000 
6610 	 C 	 8.924990 	 34.193009 	 41.528304 	 C 	 1  ala 	 1.000000 
6611 	 C 	 9.842213 	 34.062728 	 41.151836 	 C 	 1  ala 	 1.000000 
6612 	 C 	 10.509068 	 34.495130 	 41.758739 	 C 	 1  ala 	 1.000000 
6613 	 C 	 10.475841 	 33.572180 	 42.142220 	 C 	 1  ala 	 1.000000 
6614 	 C 	 10.420988 	 33.636878 	 43.138616 	 C 	 1  ala 	 1.000000 
6615 	 C 	 11.121229 	 34.349972 	 43.104567 	 C 	 1  ala 	 1.000000 
6616 	 C 	 11.634188 	 33.905725 	 42.370049 	 C 	 1  ala 	 1.000000 
6617 	 C 	 10.863165 	 34.520582 	 42.204297 	 C 	 1  ala 	 1.000000 
6618 	 C 	 10.438851 	 34.944157 	 41.403958 	 C 	 1  ala 	 1.000000 
6619 	 C 	 11.340040 	 34.945089 	 41.837384 	 C 	 1  ala 	 1.000000 
6620 	 C 	 12.250962 	 35.010879 	 42.244683 	 C 	 1  ala 	 1.000000 
6621 	 C 	 11.842423 	 34.662813 	 41.400915 	 C 	 1  ala 	 1.000000 
6622 	 C 	 11.264955 	 34.248846 	 42.104592 	 C 	 1  ala 	 1.000000 
6623 	 C 	 12.181546 	 33.976166 	 42.397007 	 C 	 1  ala 	 1.000000 
6624 	 C 	 13.021162 	 33.903922 	 42.935361 	 C 	 1  ala 	 1.000000 
6625 	 C 	 12.118716 	 33.941539 	 42.506204 	 C 	 1  ala 	 1.000000 
6626 	 C 	 12.239812 	 34.898903 	 42.243924 	 C 	 1  ala 	 1.000000 
6627 	 C 	 12.958677 	 35.533924 	 41.961111 	 C 	 1  ala 	 1.000000 
6628 	 C 	 13.045778 	 34.659903 	 42.439128 	 C 	 1  ala 	 1.000000 
6629 	 C 	 13.421371 	 35.556650 	 42.205089 	 C 	 1  ala 	 1.000000 
6630 	 C 	 13.738136 	 34.721529 	 41.755386 	 C 	 1  ala 	 1.000000 
6631 	 C 	 14.270176 	 35.231007 	 41.079099 	 C 	 1  ala 	 1.000000 
6632 	 C 	 14.108955 	 34.508321 	 40.406988 	 C 	 1  ala 	 1.000000 
6633 	 C 	 13.447828 	 34.816380 	 41.091101 	 C 	 1  ala 	 1.000000 
6634 	 C 	 12.596523 	 34.595581 	 40.615152 	 C 	 1  ala 	 1.000000 
6635 	 C 	 12.520676 	 34.119591 	 39.738977 	 C 	 1  ala 	 1.000000 
6636 	 C 	 12.202185 	 33.992503 	 40.678345 	 C 	 1  ala 	 1.000000 
6637 	 C 	 12.883229 	 33.549193 	 40.095546 	 C 	 1  ala 	 1.000000 
6638 	 C 	 12.045519 	 33.887907 	 39.667159 	 C 	 1  ala 	 1.000000 
6639 	 C 	 11.628887 	 34.580850 	 40.255587 	 C 	 1  ala 	 1.000000 
6640 	 C 	 10.684506 	 34.707367 	 40.559127 	 C 	 1  ala 	 1.000000 
6641 	 C 	 11.252466 	 33.895995 	 40.420943 	 C 	 1  ala 	 1.000000 
6642 	 C 	 11.951421 	 34.219268 	 39.783010 	 C 	 1  ala 	 1.000000 
6643 	 C 	 12.074159 	 33.332572 	 39.337247 	 C 	 1  ala 	 1.000000 
6644 	 C 	 11.364798 	 32.977199 	 39.945947 	 C 	 1  ala 	 1.000000 
6645 	 C 	 10.517569 	 33.502474 	 40.025255 	 C 	 1  ala 	 1.000000 
6646 	 C 	 10.630869 	 33.105290 	 40.935973 	 C 	 1  ala 	 1.000000 
6647 	 C 	 10.983399 	 33.216105 	 41.865189 	 C 	 1  ala 	 1.000000 
6648 	 C 	 11.832677 	 32.692224 	 41.930579 	 C 	 1  ala 	 1.000000 
6649 	 C 	 12.463718 	 32.353170 	 41.232847 	 C 	 1  ala 	 1.000000 
6650 	 C 	 12.671465 	 31.980213 	 42.137139 	 C 	 1  ala 	 1.000000 
6651 	 C 	 13.124628 	 31.611401 	 41.325584 	 C 	 1  ala 	 1.000000 
6652 	 C 	 13.364546 	 31.502636 	 42.290265 	 C 	 1  ala 	 1.000000 
6653 	 C 	 13.671035 	 31.800215 	 41.386102 	 C 	 1  ala 	 1.000000 
6654 	 C 	 13.478200 	 32.484996 	 40.683330 	 C 	 1  ala 	 1.000000 
6655 	 C 	 14.437447 	 32.486740 	 40.400766 	 C 	 1  ala 	 1.000000 
6656 	 C 	 15.061109 	 31.759590 	 40.687642 	 C 	 1  ala 	 1.000000 
6657 	 C 	 14.068674 	 31.719616 	 40.571560 	 C 	 1  ala 	 1.000000 
6658 	 C 	 13.163805 	 31.694277 	 40.146625 	 C 	 1  ala 	 1.000000 
6659 	 C 	 13.104575 	 31.928194 	 41.117076 	 C 	 1  ala 	 1.000000 
6660 	 C 	 13.418198 	 31.348868 	 41.869420 	 C 	 1  ala 	 1.000000 
6661 	 C 	 13.786832 	 30.454680 	 41.615380 	 C 	 1  ala 	 1.000000 
6662 	 C 	 14.035481 	 31.265627 	 42.145039 	 C 	 1  ala 	 1.000000 
6663 	 C 	 14.726591 	 31.366438 	 41.429354 	 C 	 1  ala 	 1.000000 
6664 	 C 	 14.370611 	 30.474858 	 41.149417 	 C 	 1  ala 	 1.000000 
6665 	 C 	 13.604850 	 30.512615 	 41.791433 	 C 	 1  ala 	 1.000000 
6666 	 C 	 12.827049 	 31.060633 	 41.483697 	 C 	 1  ala 	 1.000000 
6667 	 C 	 13.055959 	 30.990856 	 40.512754 	 C 	 1  ala 	 1.000000 
6668 	 C 	 13.660153 	 30.348367 	 40.984089 	 C 	 1  ala 	 1.000000 
6669 	 C 	 13.138209 	 30.907173 	 41.628533 	 C 	 1  ala 	 1.000000 
6670 	 C 	 13.633758 	 30.039313 	 41.663873 	 C 	 1  ala 	 1.000000 
6671 	 C 	 12.638280 	 30.122694 	 41.618349 	 C 	 1  ala 	 1.000000 
6672 	 C 	 12.476900 	 29.642678 	 42.480638 	 C 	 1  ala 	 1.000000 
6673 	 C 	 11.704017 	 29.662952 	 43.114862 	 C 	 1  ala 	 1.000000 
6674 	 C 	 11.864357 	 30.533905 	 42.650393 	 C 	 1  ala 	 1.000000 
6675 	 C 	 11.189207 	 29.796368 	 42.664946 	 C 	 1  ala 	 1.000000 
6676 	 C 	 10.554162 	 30.560773 	 42.776314 	 C 	 1  ala 	 1.000000 
6677 	 C 	 10.671917 	 31.309756 	 43.428356 	 C 	 1  ala 	 1.000000 
6678 	 C 	 11.349201 	 30.639901 	 43.732626 	 C 	 1  ala 	 1.000000 
6679 	 C 	 10.493438 	 30.958936 	 44.139918 	 C 	 1  ala 	 1.000000 
6680 	 C 	 11.154270 	 31.701644 	 44.248027 	 C 	 1  ala 	 1.000000 
6681 	 C 	 10.196591 	 31.842591 	 43.997059 	 C 	 1  ala 	 1.000000 
6682 	 C 	 10.055661 	 32.808809 	 44.212839 	 C 	 1  ala 	 1.000000 
6683 	 C 	 9.125997 	 33.172835 	 44.269488 	 C 	 1  ala 	 1.000000 
6684 	 C 	 9.191172 	 32.175093 	 44.285742 	 C 	 1  ala 	 1.000000 
6685 	 C 	 10.072906 	 31.705661 	 44.332427 	 C 	 1  ala 	 1.000000 
6686 	 C 	 10.549214 	 32.031400 	 43.515711 	 C 	 1  ala 	 1.000000 
6687 	 C 	 10.611224 	 31.049580 	 43.695107 	 C 	 1  ala 	 1.000000 
6688 	 C 	 11.598679 	 31.062966 	 43.537771 	 C 	 1  ala 	 1.000000 
6689 	 C 	 11.815741 	 32.027879 	 43.685511 	 C 	 1  ala 	 1.000000 
6690 	 C 	 12.270664 	 32.036800 	 44.575997 	 C 	 1  ala 	 1.000000 
6691 	 C 	 12.829831 	 32.135155 	 43.752796 	 C 	 1  ala 	 1.000000 
6692 	 C 	 13.269901 	 32.945805 	 43.366551 	 C 	 1  ala 	 1.000000 
6693 	 C 	 12.459271 	 33.036522 	 42.788062 	 C 	 1  ala 	 1.000000 
6694 	 C 	 12.746102 	 32.186253 	 43.229390 	 C 	 1  ala 	 1.000000 
6695 	 C 	 11.902791 	 32.054712 	 43.750469 	 C 	 1  ala 	 1.000000 
6696 	 C 	 12.415841 	 31.200298 	 43.832667 	 C 	 1  ala 	 1.000000 
6697 	 C 	 11.695566 	 30.775861 	 43.283979 	 C 	 1  ala 	 1.000000 
6698 	 C 	 11.435611 	 30.538034 	 42.348104 	 C 	 1  ala 	 1.000000 
6699 	 C 	 11.832568 	 30.647555 	 43.259384 	 C 	 1  ala 	 1.000000 
6700 	 C 	 10.898727 	 30.912233 	 43.499979 	 C 	 1  ala 	 1.000000 
6701 	 C 	 11.311784 	 30.854007 	 44.408821 	 C 	 1  ala 	 1.000000 
6702 	 C 	 11.005162 	 31.805822 	 44.414558 	 C 	 1  ala 	 1.000000 
6703 	 C 	 11.755617 	 31.593562 	 45.040468 	 C 	 1  ala 	 1.000000 
6704 	 C 	 11.043030 	 30.892802 	 45.006486 	 C 	 1  ala 	 1.000000 
6705 	 C 	 10.315388 	 30.214182 	 45.106545 	 C 	 1  ala 	 1.000000 
6706 	 C 	 10.295713 	 30.954663 	 44.434756 	 C 	 1  ala 	 1.000000 
6707 	 C 	 10.042922 	 31.757924 	 43.895434 	 C 	 1  ala 	 1.000000 
6708 	 C 	 9.110690 	 32.092879 	 43.758511 	 C 	 1  ala 	 1.000000 
6709 	 C 	 8.656552 	 32.411326 	 42.926435 	 C 	 1  ala 	 1.000000 
6710 	 C 	 9.549629 	 32.141234 	 42.566623 	 C 	 1  ala 	 1.000000 
6711 	 C 	 8.574985 	 32.061935 	 42.357386 	 C 	 1  ala 	 1.000000 
6712 	 C 	 8.849537 	 31.954738 	 43.312964 	 C 	 1  ala 	 1.000000 
6713 	 C 	 9.643151 	 32.500493 	 43.044023 	 C 	 1  ala 	 1.000000 
6714 	 C 	 9.338148 	 32.229040 	 43.956868 	 C 	 1  ala 	 1.000000 
6715 	 C 	 9.069827 	 32.976824 	 43.349560 	 C 	 1  ala 	 1.000000 
6716 	 C 	 8.852088 	 32.034754 	 43.604698 	 C 	 1  ala 	 1.000000 
6717 	 C 	 9.308916 	 32.913242 	 43.744583 	 C 	 1  ala 	 1.000000 
6718 	 C 	 8.402498 	 33.289378 	 43.936753 	 C 	 1  ala 	 1.000000 
6719 	 C 	 7.881780 	 33.347335 	 43.084994 	 C 	 1  ala 	 1.000000 
6720 	 C 	 7.388064 	 32.716464 	 42.486457 	 C 	 1  ala 	 1.000000 
6721 	 C 	 7.219438 	 33.346657 	 43.244363 	 C 	 1  ala 	 1.000000 
6722 	 C 	 7.586419 	 33.029789 	 44.118960 	 C 	 1  ala 	 1.000000 
6723 	 C 	 6.751942 	 33.555385 	 43.953439 	 C 	 1  ala 	 1.000000 
6724 	 C 	 6.551368 	 33.221133 	 44.874333 	 C 	 1  ala 	 1.000000 
6725 	 C 	 5.791729 	 33.447241 	 45.484106 	 C 	 1  ala 	 1.000000 
6726 	 C 	 5.749727 	 34.397748 	 45.791957 	 C 	 1  ala 	 1.000000 
6727 	 C 	 5.114119 	 34.944486 	 45.246907 	 C 	 1  ala 	 1.000000 
6728 	 C 	 5.899068 	 34.883776 	 44.630328 	 C 	 1  ala 	 1.000000 
6729 	 C 	 5.449224 	 34.437210 	 45.403775 	 C 	 1  ala 	 1.000000 
6730 	 C 	 6.383513 	 34.130038 	 45.222806 	 C 	 1  ala 	 1.000000 
6731 	 C 	 5.536541 	 33.641450 	 45.432381 	 C 	 1  ala 	 1.000000 
6732 	 C 	 6.332526 	 33.749445 	 46.027986 	 C 	 1  ala 	 1.000000 
6733 	 C 	 6.478743 	 33.786587 	 47.016541 	 C 	 1  ala 	 1.000000 
6734 	 C 	 7.039549 	 33.553265 	 46.222150 	 C 	 1  ala 	 1.000000 
6735 	 C 	 7.326068 	 32.806632 	 45.621779 	 C 	 1  ala 	 1.000000 
6736 	 C 	 7.161400 	 33.550578 	 44.974146 	 C 	 1  ala 	 1.000000 
6737 	 C 	 6.390328 	 33.740153 	 44.366274 	 C 	 1  ala 	 1.000000 
6738 	 C 	 5.882717 	 33.926339 	 45.207503 	 C 	 1  ala 	 1.000000 
6739 	 C 	 6.666015 	 33.339090 	 45.003582 	 C 	 1  ala 	 1.000000 
6740 	 C 	 7.650012 	 33.224628 	 45.140138 	 C 	 1  ala 	 1.000000 
6741 	 C 	 7.766897 	 32.848035 	 44.221162 	 C 	 1  ala 	 1.000000 
6742 	 C 	 8.558134 	 32.903853 	 43.612205 	 C 	 1  ala 	 1.000000 
6743 	 C 	 9.550732 	 32.788853 	 43.651245 	 C 	 1  ala 	 1.000000 
6744 	 C 	 8.720263 	 33.288050 	 43.898477 	 C 	 1  ala 	 1.000000 
6745 	 C 	 7.900894 	 33.644374 	 44.347550 	 C 	 1  ala 	 1.000000 
6746 	 C 	 7.826860 	 32.653301 	 44.458422 	 C 	 1  ala 	 1.000000 
6747 	 C 	 7.215173 	 33.236730 	 43.924147 	 C 	 1  ala 	 1.000000 
6748 	 C 	 8.072477 	 32.722834 	 43.954817 	 C 	 1  ala 	 1.000000 
6749 	 C 	 7.172538 	 32.954858 	 44.323972 	 C 	 1  ala 	 1.000000 
6750 	 C 	 7.525902 	 32.263802 	 44.954508 	 C 	 1  ala 	 1.000000 
6751 	 C 	 7.168713 	 31.670495 	 45.675898 	 C 	 1  ala 	 1.000000 
6752 	 C 	 7.812709 	 30.911354 	 45.581163 	 C 	 1  ala 	 1.000000 
6753 	 C 	 8.142684 	 31.832010 	 45.372571 	 C 	 1  ala 	 1.000000 
6754 	 C 	 8.358057 	 31.918063 	 44.399838 	 C 	 1  ala 	 1.000000 
6755 	 C 	 8.051587 	 30.990978 	 44.183988 	 C 	 1  ala 	 1.000000 
6756 	 C 	 8.273023 	 30.015891 	 44.170927 	 C 	 1  ala 	 1.000000 
6757 	 C 	 7.739748 	 30.808315 	 43.874819 	 C 	 1  ala 	 1.000000 
6758 	 C 	 7.708344 	 31.267263 	 44.762727 	 C 	 1  ala 	 1.000000 
6759 	 C 	 8.448894 	 30.885284 	 45.315608 	 C 	 1  ala 	 1.000000 
6760 	 C 	 9.417165 	 31.120507 	 45.399996 	 C 	 1  ala 	 1.000000 
6761 	 C 	 9.821072 	 30.630195 	 46.172300 	 C 	 1  ala 	 1.000000 
6762 	 C 	 9.038206 	 30.207856 	 45.715408 	 C 	 1  ala 	 1.000000 
6763 	 C 	 9.671458 	 30.494968 	 44.996688 	 C 	 1  ala 	 1.000000 
6764 	 C 	 8.931126 	 30.004935 	 44.536498 	 C 	 1  ala 	 1.000000 
6765 	 C 	 8.250955 	 30.324755 	 43.876890 	 C 	 1  ala 	 1.000000 
6766 	 C 	 8.919861 	 30.105344 	 43.166663 	 C 	 1  ala 	 1.000000 
6767 	 C 	 8.199280 	 29.573855 	 42.721374 	 C 	 1  ala 	 1.000000 
6768 	 C 	 9.114523 	 29.922069 	 42.924048 	 C 	 1  ala 	 1.000000 
6769 	 C 	 9.520727 	 30.211191 	 42.057210 	 C 	 1  ala 	 1.000000 
6770 	 C 	 8.682282 	 29.729347 	 41.802581 	 C 	 1  ala 	 1.000000 
6771 	 C 	 9.351913 	 30.415759 	 41.518974 	 C 	 1  ala 	 1.000000 
6772 	 C 	 8.671179 	 30.058276 	 40.879595 	 C 	 1  ala 	 1.000000 
6773 	 C 	 9.009236 	 30.314102 	 41.785282 	 C 	 1  ala 	 1.000000 
6774 	 C 	 8.951703 	 29.668518 	 41.023763 	 C 	 1  ala 	 1.000000 
6775 	 C 	 8.042026 	 29.417203 	 40.693114 	 C 	 1  ala 	 1.000000 
6776 	 C 	 7.435637 	 30.015754 	 40.169635 	 C 	 1  ala 	 1.000000 
6777 	 C 	 8.036025 	 30.811005 	 40.085308 	 C 	 1  ala 	 1.000000 
6778 	 C 	 8.236053 	 30.768398 	 39.106445 	 C 	 1  ala 	 1.000000 
6779 	 C 	 8.637773 	 30.077270 	 38.505642 	 C 	 1  ala 	 1.000000 
6780 	 C 	 9.474100 	 29.856183 	 38.003968 	 C 	 1  ala 	 1.000000 
6781 	 C 	 8.499384 	 29.737882 	 38.193531 	 C 	 1  ala 	 1.000000 
6782 	 C 	 7.918764 	 29.247435 	 38.843409 	 C 	 1  ala 	 1.000000 
6783 	 C 	 7.679835 	 28.408593 	 39.332549 	 C 	 1  ala 	 1.000000 
6784 	 C 	 8.516973 	 28.188707 	 39.833398 	 C 	 1  ala 	 1.000000 
6785 	 C 	 9.054728 	 27.347199 	 39.781590 	 C 	 1  ala 	 1.000000 
6786 	 C 	 9.094845 	 26.505097 	 40.319414 	 C 	 1  ala 	 1.000000 
6787 	 C 	 8.343054 	 26.328991 	 39.683963 	 C 	 1  ala 	 1.000000 
6788 	 C 	 8.103719 	 27.136738 	 39.145201 	 C 	 1  ala 	 1.000000 
6789 	 C 	 8.143517 	 26.148429 	 39.292382 	 C 	 1  ala 	 1.000000 
6790 	 C 	 8.942776 	 25.563629 	 39.153840 	 C 	 1  ala 	 1.000000 
6791 	 C 	 8.994064 	 24.685787 	 38.677645 	 C 	 1  ala 	 1.000000 
6792 	 C 	 9.438001 	 24.045946 	 38.050331 	 C 	 1  ala 	 1.000000 
6793 	 C 	 9.261853 	 24.135960 	 37.070091 	 C 	 1  ala 	 1.000000 
6794 	 C 	 8.573667 	 24.857017 	 37.150571 	 C 	 1  ala 	 1.000000 
6795 	 C 	 7.815825 	 25.103128 	 37.754811 	 C 	 1  ala 	 1.000000 
6796 	 C 	 7.883070 	 24.552396 	 36.922842 	 C 	 1  ala 	 1.000000 
6797 	 C 	 8.659736 	 24.308467 	 37.503607 	 C 	 1  ala 	 1.000000 
6798 	 C 	 8.256733 	 23.911481 	 38.328223 	 C 	 1  ala 	 1.000000 
6799 	 C 	 7.737082 	 23.371685 	 38.990478 	 C 	 1  ala 	 1.000000 
6800 	 C 	 7.449745 	 23.983584 	 39.727375 	 C 	 1  ala 	 1.000000 
6801 	 C 	 8.371594 	 23.723488 	 39.440068 	 C 	 1  ala 	 1.000000 
6802 	 C 	 7.632306 	 24.323869 	 39.745023 	 C 	 1  ala 	 1.000000 
6803 	 C 	 7.013860 	 23.665005 	 40.173301 	 C 	 1  ala 	 1.000000 
6804 	 C 	 7.826142 	 24.000112 	 39.695912 	 C 	 1  ala 	 1.000000 
6805 	 C 	 8.264270 	 24.686859 	 39.115893 	 C 	 1  ala 	 1.000000 
6806 	 C 	 7.333946 	 25.048831 	 39.056955 	 C 	 1  ala 	 1.000000 
6807 	 C 	 7.641452 	 24.129996 	 38.809604 	 C 	 1  ala 	 1.000000 
6808 	 C 	 8.334760 	 24.425009 	 38.152115 	 C 	 1  ala 	 1.000000 
6809 	 C 	 8.495720 	 25.170347 	 38.799079 	 C 	 1  ala 	 1.000000 
6810 	 C 	 8.200085 	 24.306752 	 38.390663 	 C 	 1  ala 	 1.000000 
6811 	 C 	 8.457329 	 23.849865 	 37.539147 	 C 	 1  ala 	 1.000000 
6812 	 C 	 8.966852 	 24.039288 	 36.699799 	 C 	 1  ala 	 1.000000 
6813 	 C 	 8.962892 	 24.471931 	 37.601356 	 C 	 1  ala 	 1.000000 
6814 	 C 	 9.793786 	 24.576401 	 37.054822 	 C 	 1  ala 	 1.000000 
6815 	 C 	 9.092756 	 24.931164 	 37.673450 	 C 	 1  ala 	 1.000000 
6816 	 C 	 8.632955 	 25.811351 	 37.791155 	 C 	 1  ala 	 1.000000 
6817 	 C 	 8.188376 	 24.917625 	 37.851191 	 C 	 1  ala 	 1.000000 
6818 	 C 	 9.135863 	 25.193712 	 38.012575 	 C 	 1  ala 	 1.000000 
6819 	 C 	 9.072850 	 25.410861 	 37.038472 	 C 	 1  ala 	 1.000000 
6820 	 C 	 9.058881 	 25.651385 	 38.009015 	 C 	 1  ala 	 1.000000 
6821 	 C 	 8.283251 	 26.277484 	 38.089003 	 C 	 1  ala 	 1.000000 
6822 	 C 	 7.331882 	 26.432798 	 38.355042 	 C 	 1  ala 	 1.000000 
6823 	 C 	 7.126013 	 25.861363 	 37.560636 	 C 	 1  ala 	 1.000000 
6824 	 C 	 6.480302 	 26.488156 	 37.124530 	 C 	 1  ala 	 1.000000 
6825 	 C 	 6.102430 	 27.327524 	 36.733796 	 C 	 1  ala 	 1.000000 
6826 	 C 	 5.320269 	 27.265579 	 36.113806 	 C 	 1  ala 	 1.000000 
6827 	 C 	 6.041149 	 27.840465 	 35.726716 	 C 	 1  ala 	 1.000000 
6828 	 C 	 5.616427 	 27.686442 	 34.834591 	 C 	 1  ala 	 1.000000 
6829 	 C 	 6.542281 	 27.440361 	 35.121361 	 C 	 1  ala 	 1.000000 
6830 	 C 	 6.688774 	 27.390162 	 36.109298 	 C 	 1  ala 	 1.000000 
6831 	 C 	 6.725665 	 27.210963 	 37.092419 	 C 	 1  ala 	 1.000000 
6832 	 C 	 7.179614 	 27.175246 	 36.202108 	 C 	 1  ala 	 1.000000 
6833 	 C 	 7.461152 	 26.318089 	 36.633408 	 C 	 1  ala 	 1.000000 
6834 	 C 	 7.858146 	 27.193232 	 36.356783 	 C 	 1  ala 	 1.000000 
6835 	 C 	 7.353321 	 27.239336 	 35.494793 	 C 	 1  ala 	 1.000000 
6836 	 C 	 7.251273 	 27.759875 	 36.342511 	 C 	 1  ala 	 1.000000 
6837 	 C 	 6.779567 	 28.563720 	 36.704902 	 C 	 1  ala 	 1.000000 
6838 	 C 	 7.485018 	 27.949029 	 37.057739 	 C 	 1  ala 	 1.000000 
6839 	 C 	 8.012938 	 28.201897 	 37.868516 	 C 	 1  ala 	 1.000000 
6840 	 C 	 7.254159 	 28.831404 	 37.701256 	 C 	 1  ala 	 1.000000 
6841 	 C 	 6.446337 	 28.245525 	 37.765828 	 C 	 1  ala 	 1.000000 
6842 	 C 	 7.196137 	 28.609583 	 37.213323 	 C 	 1  ala 	 1.000000 
6843 	 C 	 6.220586 	 28.623075 	 37.432684 	 C 	 1  ala 	 1.000000 
6844 	 C 	 5.387203 	 28.550416 	 36.884785 	 C 	 1  ala 	 1.000000 
6845 	 C 	 4.707855 	 27.971730 	 37.336015 	 C 	 1  ala 	 1.000000 
6846 	 C 	 5.296541 	 27.656506 	 38.080382 	 C 	 1  ala 	 1.000000 
6847 	 C 	 4.736032 	 26.913649 	 37.714331 	 C 	 1  ala 	 1.000000 
6848 	 C 	 5.487121 	 27.476564 	 38.059284 	 C 	 1  ala 	 1.000000 
6849 	 C 	 6.233828 	 27.632518 	 38.705896 	 C 	 1  ala 	 1.000000 
6850 	 C 	 5.341617 	 27.180991 	 38.715032 	 C 	 1  ala 	 1.000000 
6851 	 C 	 4.361681 	 27.261458 	 38.897379 	 C 	 1  ala 	 1.000000 
6852 	 C 	 3.389903 	 27.497240 	 38.904674 	 C 	 1  ala 	 1.000000 
6853 	 C 	 3.857723 	 28.377399 	 38.985073 	 C 	 1  ala 	 1.000000 
6854 	 C 	 3.369928 	 27.980551 	 39.762612 	 C 	 1  ala 	 1.000000 
6855 	 C 	 3.797070 	 27.458353 	 39.024467 	 C 	 1  ala 	 1.000000 
6856 	 C 	 3.963309 	 28.090789 	 38.267902 	 C 	 1  ala 	 1.000000 
6857 	 C 	 4.594017 	 28.558027 	 38.887496 	 C 	 1  ala 	 1.000000 
6858 	 C 	 4.428585 	 29.539493 	 38.984221 	 C 	 1  ala 	 1.000000 
6859 	 C 	 3.460748 	 29.759081 	 38.861448 	 C 	 1  ala 	 1.000000 
6860 	 C 	 4.196978 	 30.056296 	 39.469419 	 C 	 1  ala 	 1.000000 
6861 	 C 	 4.569665 	 30.939159 	 39.183663 	 C 	 1  ala 	 1.000000 
6862 	 C 	 4.904279 	 30.052940 	 39.504052 	 C 	 1  ala 	 1.000000 
6863 	 C 	 5.361347 	 30.335017 	 40.347569 	 C 	 1  ala 	 1.000000 
6864 	 C 	 5.023377 	 31.095578 	 39.793201 	 C 	 1  ala 	 1.000000 
6865 	 C 	 5.020807 	 30.437145 	 40.545836 	 C 	 1  ala 	 1.000000 
6866 	 C 	 4.802089 	 29.746933 	 39.856076 	 C 	 1  ala 	 1.000000 
6867 	 C 	 3.849594 	 29.739177 	 40.160534 	 C 	 1  ala 	 1.000000 
6868 	 C 	 4.420739 	 29.342489 	 39.441902 	 C 	 1  ala 	 1.000000 
6869 	 C 	 3.862194 	 30.169120 	 39.510516 	 C 	 1  ala 	 1.000000 
6870 	 C 	 4.616545 	 30.329928 	 40.146987 	 C 	 1  ala 	 1.000000 
6871 	 C 	 5.200552 	 30.672527 	 39.411078 	 C 	 1  ala 	 1.000000 
6872 	 C 	 5.227453 	 31.671602 	 39.377508 	 C 	 1  ala 	 1.000000 
6873 	 C 	 4.596455 	 31.852556 	 40.131893 	 C 	 1  ala 	 1.000000 
6874 	 C 	 4.601735 	 32.850007 	 40.060738 	 C 	 1  ala 	 1.000000 
6875 	 C 	 4.811198 	 33.681103 	 39.545563 	 C 	 1  ala 	 1.000000 
6876 	 C 	 4.953617 	 34.248060 	 38.734220 	 C 	 1  ala 	 1.000000 
6877 	 C 	 5.124283 	 33.304453 	 38.450529 	 C 	 1  ala 	 1.000000 
6878 	 C 	 5.371354 	 34.171516 	 38.883147 	 C 	 1  ala 	 1.000000 
6879 	 C 	 4.994275 	 35.079366 	 39.066503 	 C 	 1  ala 	 1.000000 
6880 	 C 	 4.713231 	 34.148721 	 38.832165 	 C 	 1  ala 	 1.000000 
6881 	 C 	 5.481229 	 34.113979 	 38.192656 	 C 	 1  ala 	 1.000000 
6882 	 C 	 5.154715 	 34.851098 	 38.784301 	 C 	 1  ala 	 1.000000 
6883 	 C 	 4.215909 	 34.755618 	 39.115250 	 C 	 1  ala 	 1.000000 
6884 	 C 	 4.937302 	 34.168794 	 38.747511 	 C 	 1  ala 	 1.000000 
6885 	 C 	 4.673510 	 34.361965 	 37.802472 	 C 	 1  ala 	 1.000000 
6886 	 C 	 5.074976 	 33.775198 	 38.505699 	 C 	 1  ala 	 1.000000 
6887 	 C 	 5.392539 	 33.213550 	 39.269706 	 C 	 1  ala 	 1.000000 
6888 	 C 	 4.786649 	 32.427125 	 39.389841 	 C 	 1  ala 	 1.000000 
6889 	 C 	 4.807543 	 31.739432 	 38.664140 	 C 	 1  ala 	 1.000000 
6890 	 C 	 5.060540 	 32.341538 	 37.906869 	 C 	 1  ala 	 1.000000 
6891 	 C 	 4.711250 	 32.311246 	 38.843393 	 C 	 1  ala 	 1.000000 
6892 	 C 	 4.403368 	 32.312864 	 39.794817 	 C 	 1  ala 	 1.000000 
6893 	 C 	 4.207058 	 32.869403 	 40.602113 	 C 	 1  ala 	 1.000000 
6894 	 C 	 4.387996 	 31.934261 	 40.906696 	 C 	 1  ala 	 1.000000 
6895 	 C 	 4.661771 	 32.791933 	 41.341950 	 C 	 1  ala 	 1.000000 
6896 	 C 	 4.837190 	 32.442947 	 42.262513 	 C 	 1  ala 	 1.000000 
6897 	 C 	 5.798081 	 32.476033 	 41.987568 	 C 	 1  ala 	 1.000000 
6898 	 C 	 6.469092 	 33.111656 	 41.605825 	 C 	 1  ala 	 1.000000 
6899 	 C 	 7.037677 	 33.498357 	 42.331893 	 C 	 1  ala 	 1.000000 
6900 	 C 	 7.771171 	 32.854978 	 42.112691 	 C 	 1  ala 	 1.000000 
6901 	 C 	 8.766387 	 32.949151 	 42.138690 	 C 	 1  ala 	 1.000000 
6902 	 C 	 8.770529 	 32.894952 	 43.137212 	 C 	 1  ala 	 1.000000 
6903 	 C 	 9.106402 	 31.961298 	 43.261628 	 C 	 1  ala 	 1.000000 
6904 	 C 	 9.548080 	 31.397869 	 43.959818 	 C 	 1  ala 	 1.000000 
6905 	 C 	 9.418235 	 31.865475 	 43.085470 	 C 	 1  ala 	 1.000000 
6906 	 C 	 10.122820 	 31.840366 	 42.376295 	 C 	 1  ala 	 1.000000 
6907 	 C 	 11.046082 	 31.458917 	 42.421953 	 C 	 1  ala 	 1.000000 
6908 	 C 	 11.720758 	 30.747477 	 42.618587 	 C 	 1  ala 	 1.000000 
6909 	 C 	 12.079450 	 29.916804 	 42.192767 	 C 	 1  ala 	 1.000000 
6910 	 C 	 11.891421 	 30.414734 	 43.039354 	 C 	 1  ala 	 1.000000 
6911 	 C 	 11.347278 	 31.239552 	 42.885783 	 C 	 1  ala 	 1.000000 
6912 	 C 	 10.922341 	 32.134631 	 43.020922 	 C 	 1  ala 	 1.000000 
6913 	 C 	 10.796864 	 31.222807 	 43.411861 	 C 	 1  ala 	 1.000000 
6914 	 C 	 10.936664 	 32.001380 	 42.800076 	 C 	 1  ala 	 1.000000 
6915 	 C 	 10.466663 	 31.859086 	 41.928955 	 C 	 1  ala 	 1.000000 
6916 	 C 	 10.050639 	 32.427709 	 42.638596 	 C 	 1  ala 	 1.000000 
6917 	 C 	 10.789426 	 31.764864 	 42.516816 	 C 	 1  ala 	 1.000000 
6918 	 C 	 10.359362 	 31.896014 	 41.623595 	 C 	 1  ala 	 1.000000 
6919 	 C 	 10.085818 	 32.844765 	 41.781851 	 C 	 1  ala 	 1.000000 
6920 	 C 	 9.917164 	 32.263439 	 42.577851 	 C 	 1  ala 	 1.000000 
6921 	 C 	 9.489068 	 31.531532 	 43.107989 	 C 	 1  ala 	 1.000000 
6922 	 C 	 9.359138 	 32.275141 	 43.763857 	 C 	 1  ala 	 1.000000 
6923 	 C 	 10.001406 	 31.679126 	 43.281926 	 C 	 1  ala 	 1.000000 
6924 	 C 	 10.012721 	 32.332500 	 44.038877 	 C 	 1  ala 	 1.000000 
6925 	 C 	 9.212500 	 32.140591 	 43.470708 	 C 	 1  ala 	 1.000000 
6926 	 C 	 9.398736 	 31.705394 	 42.589845 	 C 	 1  ala 	 1.000000 
6927 	 C 	 9.703641 	 31.396374 	 41.688990 	 C 	 1  ala 	 1.000000 
6928 	 C 	 10.509968 	 31.960056 	 41.868156 	 C 	 1  ala 	 1.000000 
6929 	 C 	 10.638991 	 32.803157 	 42.390204 	 C 	 1  ala 	 1.000000 
6930 	 C 	 11.521232 	 32.355764 	 42.243610 	 C 	 1  ala 	 1.000000 
6931 	 C 	 12.499777 	 32.222534 	 42.400770 	 C 	 1  ala 	 1.000000 
6932 	 C 	 13.096016 	 31.442417 	 42.211250 	 C 	 1  ala 	 1.000000 
6933 	 C 	 12.100939 	 31.499841 	 42.130476 	 C 	 1  ala 	 1.000000 
6934 	 C 	 11.334889 	 30.949327 	 42.462293 	 C 	 1  ala 	 1.000000 
6935 	 C 	 12.239415 	 30.902506 	 42.038452 	 C 	 1  ala 	 1.000000 
6936 	 C 	 11.958501 	 30.223854 	 41.359837 	 C 	 1  ala 	 1.000000 
6937 	 C 	 11.383532 	 29.693944 	 41.983220 	 C 	 1  ala 	 1.000000 
6938 	 C 	 10.979593 	 30.594631 	 41.823232 	 C 	 1  ala 	 1.000000 
6939 	 C 	 10.239516 	 31.063231 	 42.305621 	 C 	 1  ala 	 1.000000 
6940 	 C 	 10.103529 	 30.076090 	 42.221598 	 C 	 1  ala 	 1.000000 
6941 	 C 	 10.459224 	 30.741921 	 42.877456 	 C 	 1  ala 	 1.000000 
6942 	 C 	 9.773668 	 31.469919 	 42.871866 	 C 	 1  ala 	 1.000000 
6943 	 C 	 10.709007 	 31.287810 	 43.175144 	 C 	 1  ala 	 1.000000 
6944 	 C 	 10.282405 	 30.434367 	 42.875734 	 C 	 1  ala 	 1.000000 
6945 	 C 	 9.856139 	 30.574332 	 41.982030 	 C 	 1  ala 	 1.000000 
6946 	 C 	 9.616606 	 29.603579 	 41.998238 	 C 	 1  ala 	 1.000000 
6947 	 C 	 10.129014 	 30.276621 	 41.464896 	 C 	 1  ala 	 1.000000 
6948 	 C 	 9.953367 	 31.095081 	 40.917840 	 C 	 1  ala 	 1.000000 
6949 	 C 	 10.451491 	 30.703620 	 41.691552 	 C 	 1  ala 	 1.000000 
6950 	 C 	 9.828726 	 30.770528 	 40.912010 	 C 	 1  ala 	 1.000000 
6951 	 C 	 10.045211 	 29.865383 	 40.546158 	 C 	 1  ala 	 1.000000 
6952 	 C 	 9.716107 	 30.340919 	 39.730342 	 C 	 1  ala 	 1.000000 
6953 	 C 	 9.472807 	 30.316050 	 40.699974 	 C 	 1  ala 	 1.000000 
6954 	 C 	 9.745855 	 29.798295 	 39.889187 	 C 	 1  ala 	 1.000000 
6955 	 C 	 9.818246 	 28.827241 	 39.661564 	 C 	 1  ala 	 1.000000 
6956 	 C 	 9.909332 	 28.015181 	 40.237985 	 C 	 1  ala 	 1.000000 
6957 	 C 	 10.213696 	 28.909800 	 39.910847 	 C 	 1  ala 	 1.000000 
6958 	 C 	 9.485175 	 29.464966 	 40.312155 	 C 	 1  ala 	 1.000000 
6959 	 C 	 8.854600 	 29.385034 	 41.084156 	 C 	 1  ala 	 1.000000 
6960 	 C 	 8.960547 	 29.104625 	 42.038172 	 C 	 1  ala 	 1.000000 
6961 	 C 	 8.441214 	 28.605181 	 41.344740 	 C 	 1  ala 	 1.000000 
6962 	 C 	 8.285939 	 27.635632 	 41.155362 	 C 	 1  ala 	 1.000000 
6963 	 C 	 8.785659 	 27.305011 	 40.354756 	 C 	 1  ala 	 1.000000 
6964 	 C 	 8.705355 	 26.322942 	 40.525320 	 C 	 1  ala 	 1.000000 
6965 	 C 	 8.862130 	 25.340325 	 40.624749 	 C 	 1  ala 	 1.000000 
6966 	 C 	 8.762875 	 24.345272 	 40.620515 	 C 	 1  ala 	 1.000000 
6967 	 C 	 9.173309 	 25.167801 	 41.014203 	 C 	 1  ala 	 1.000000 
6968 	 C 	 9.846574 	 24.883887 	 41.696923 	 C 	 1  ala 	 1.000000 
6969 	 C 	 9.423117 	 24.702422 	 40.809368 	 C 	 1  ala 	 1.000000 
6970 	 C 	 10.038024 	 25.056600 	 41.513958 	 C 	 1  ala 	 1.000000 
6971 	 C 	 9.653690 	 25.797275 	 42.065036 	 C 	 1  ala 	 1.000000 
6972 	 C 	 9.613069 	 24.814318 	 42.244324 	 C 	 1  ala 	 1.000000 
6973 	 C 	 9.361607 	 25.560003 	 42.861350 	 C 	 1  ala 	 1.000000 
6974 	 C 	 9.048718 	 25.145051 	 42.006999 	 C 	 1  ala 	 1.000000 
6975 	 C 	 9.428585 	 25.282200 	 41.092181 	 C 	 1  ala 	 1.000000 
6976 	 C 	 9.988386 	 25.258260 	 40.263900 	 C 	 1  ala 	 1.000000 
6977 	 C 	 9.221125 	 25.870022 	 40.456407 	 C 	 1  ala 	 1.000000 
6978 	 C 	 9.297238 	 26.858992 	 40.583469 	 C 	 1  ala 	 1.000000 
6979 	 C 	 10.293283 	 26.809772 	 40.657451 	 C 	 1  ala 	 1.000000 
6980 	 C 	 11.084546 	 27.415935 	 40.737876 	 C 	 1  ala 	 1.000000 
6981 	 C 	 10.549832 	 27.056897 	 41.502842 	 C 	 1  ala 	 1.000000 
6982 	 C 	 10.412319 	 28.040894 	 41.616159 	 C 	 1  ala 	 1.000000 
6983 	 C 	 11.009681 	 28.811879 	 41.836934 	 C 	 1  ala 	 1.000000 
6984 	 C 	 11.100847 	 29.470558 	 42.583814 	 C 	 1  ala 	 1.000000 
6985 	 C 	 11.442542 	 29.156416 	 43.469567 	 C 	 1  ala 	 1.000000 
6986 	 C 	 11.188223 	 28.989044 	 44.422095 	 C 	 1  ala 	 1.000000 
6987 	 C 	 12.110684 	 28.633581 	 44.271391 	 C 	 1  ala 	 1.000000 
6988 	 C 	 12.148712 	 27.652997 	 44.463770 	 C 	 1  ala 	 1.000000 
6989 	 C 	 11.771957 	 26.726759 	 44.475514 	 C 	 1  ala 	 1.000000 
6990 	 C 	 11.975806 	 27.686487 	 44.282206 	 C 	 1  ala 	 1.000000 
6991 	 C 	 11.303793 	 26.982131 	 44.053555 	 C 	 1  ala 	 1.000000 
6992 	 C 	 12.264586 	 26.868240 	 43.800759 	 C 	 1  ala 	 1.000000 
6993 	 C 	 11.710197 	 27.377778 	 44.458805 	 C 	 1  ala 	 1.000000 
6994 	 C 	 12.262594 	 27.372265 	 43.625243 	 C 	 1  ala 	 1.000000 
6995 	 C 	 12.779203 	 26.720379 	 43.070121 	 C 	 1  ala 	 1.000000 
6996 	 C 	 13.590054 	 26.238690 	 42.737712 	 C 	 1  ala 	 1.000000 
6997 	 C 	 13.540903 	 27.227389 	 42.879339 	 C 	 1  ala 	 1.000000 
6998 	 C 	 14.061589 	 28.035746 	 43.154012 	 C 	 1  ala 	 1.000000 
6999 	 C 	 13.498499 	 27.901471 	 43.969425 	 C 	 1  ala 	 1.000000 
7000 	 C 	 13.913464 	 27.405882 	 44.732442 	 C 	 1  ala 	 1.000000 
7001 	 C 	 13.037863 	 26.933529 	 44.631421 	 C 	 1  ala 	 1.000000 
7002 	 C 	 14.011236 	 27.079858 	 44.807866 	 C 	 1  ala 	 1.000000 
7003 	 C 	 13.784151 	 27.654061 	 45.594455 	 C 	 1  ala 	 1.000000 
7004 	 C 	 14.775662 	 27.528753 	 45.559774 	 C 	 1  ala 	 1.000000 
7005 	 C 	 14.365554 	 28.103839 	 46.267649 	 C 	 1  ala 	 1.000000 
7006 	 C 	 14.343403 	 27.346111 	 45.615455 	 C 	 1  ala 	 1.000000 
7007 	 C 	 13.591950 	 27.984356 	 45.448243 	 C 	 1  ala 	 1.000000 
7008 	 C 	 13.548266 	 28.958724 	 45.668921 	 C 	 1  ala 	 1.000000 
7009 	 C 	 13.548657 	 29.855246 	 45.225921 	 C 	 1  ala 	 1.000000 
7010 	 C 	 14.070214 	 29.398423 	 45.946540 	 C 	 1  ala 	 1.000000 
7011 	 C 	 13.387790 	 30.095137 	 46.167647 	 C 	 1  ala 	 1.000000 
7012 	 C 	 12.948252 	 30.926837 	 46.506881 	 C 	 1  ala 	 1.000000 
7013 	 C 	 12.131468 	 30.902756 	 45.930441 	 C 	 1  ala 	 1.000000 
7014 	 C 	 12.681293 	 30.156165 	 46.304998 	 C 	 1  ala 	 1.000000 
7015 	 C 	 12.254446 	 29.287355 	 46.555939 	 C 	 1  ala 	 1.000000 
7016 	 C 	 13.085210 	 29.469248 	 46.029872 	 C 	 1  ala 	 1.000000 
7017 	 C 	 12.325271 	 29.365888 	 45.388148 	 C 	 1  ala 	 1.000000 
7018 	 C 	 12.057661 	 29.335809 	 44.425090 	 C 	 1  ala 	 1.000000 
7019 	 C 	 12.484151 	 29.509224 	 43.537378 	 C 	 1  ala 	 1.000000 
7020 	 C 	 12.294705 	 29.593861 	 42.559141 	 C 	 1  ala 	 1.000000 
7021 	 C 	 11.797646 	 30.325620 	 43.025468 	 C 	 1  ala 	 1.000000 
7022 	 C 	 12.266469 	 29.513025 	 42.679212 	 C 	 1  ala 	 1.000000 
7023 	 C 	 13.020390 	 28.875761 	 42.838892 	 C 	 1  ala 	 1.000000 
7024 	 C 	 13.317886 	 28.716726 	 41.897508 	 C 	 1  ala 	 1.000000 
7025 	 C 	 13.925980 	 29.503039 	 41.788266 	 C 	 1  ala 	 1.000000 
7026 	 C 	 14.477559 	 30.329118 	 41.903828 	 C 	 1  ala 	 1.000000 
7027 	 C 	 14.278061 	 30.084490 	 42.852700 	 C 	 1  ala 	 1.000000 
7028 	 C 	 13.840224 	 30.783547 	 42.287352 	 C 	 1  ala 	 1.000000 
7029 	 C 	 13.024747 	 30.216766 	 42.170061 	 C 	 1  ala 	 1.000000 
7030 	 C 	 13.390708 	 30.838190 	 42.862813 	 C 	 1  ala 	 1.000000 
7031 	 C 	 12.555290 	 31.359091 	 43.038139 	 C 	 1  ala 	 1.000000 
7032 	 C 	 13.022784 	 31.453351 	 43.917095 	 C 	 1  ala 	 1.000000 
7033 	 C 	 12.502260 	 30.614491 	 44.076369 	 C 	 1  ala 	 1.000000 
7034 	 C 	 12.492889 	 29.867177 	 44.740775 	 C 	 1  ala 	 1.000000 
7035 	 C 	 11.566465 	 30.041469 	 45.074485 	 C 	 1  ala 	 1.000000 
7036 	 C 	 12.119777 	 29.510500 	 44.432677 	 C 	 1  ala 	 1.000000 
7037 	 C 	 12.568936 	 28.821192 	 43.864248 	 C 	 1  ala 	 1.000000 
7038 	 C 	 13.390888 	 28.481249 	 43.407265 	 C 	 1  ala 	 1.000000 
7039 	 C 	 13.329544 	 27.483328 	 43.427039 	 C 	 1  ala 	 1.000000 
7040 	 C 	 13.348335 	 26.568636 	 43.830754 	 C 	 1  ala 	 1.000000 
7041 	 C 	 13.593724 	 25.664361 	 43.481367 	 C 	 1  ala 	 1.000000 
7042 	 C 	 14.380249 	 25.053811 	 43.574136 	 C 	 1  ala 	 1.000000 
7043 	 C 	 14.902547 	 25.766274 	 44.042751 	 C 	 1  ala 	 1.000000 
7044 	 C 	 14.371088 	 26.490114 	 44.482760 	 C 	 1  ala 	 1.000000 
7045 	 C 	 14.353438 	 26.770223 	 45.442566 	 C 	 1  ala 	 1.000000 
7046 	 C 	 15.147324 	 27.010113 	 46.001312 	 C 	 1  ala 	 1.000000 
7047 	 C 	 14.896682 	 27.741535 	 46.635505 	 C 	 1  ala 	 1.000000 
7048 	 C 	 14.198399 	 28.264365 	 47.124433 	 C 	 1  ala 	 1.000000 
7049 	 C 	 14.376031 	 29.127167 	 47.597739 	 C 	 1  ala 	 1.000000 
7050 	 C 	 14.337609 	 29.779706 	 48.354520 	 C 	 1  ala 	 1.000000 
7051 	 C 	 13.404803 	 29.462376 	 48.183712 	 C 	 1  ala 	 1.000000 
7052 	 C 	 14.387330 	 29.349279 	 48.035891 	 C 	 1  ala 	 1.000000 
7053 	 C 	 14.715322 	 28.429687 	 48.252160 	 C 	 1  ala 	 1.000000 
7054 	 C 	 15.283203 	 27.850352 	 48.836867 	 C 	 1  ala 	 1.000000 
7055 	 C 	 15.531159 	 27.264766 	 48.065112 	 C 	 1  ala 	 1.000000 
7056 	 C 	 14.598093 	 27.192662 	 47.712707 	 C 	 1  ala 	 1.000000 
7057 	 C 	 14.982280 	 26.935958 	 46.825857 	 C 	 1  ala 	 1.000000 
7058 	 C 	 14.787134 	 27.562523 	 46.071315 	 C 	 1  ala 	 1.000000 
7059 	 C 	 15.389502 	 27.436697 	 45.283076 	 C 	 1  ala 	 1.000000 
7060 	 C 	 15.525624 	 26.452291 	 45.171652 	 C 	 1  ala 	 1.000000 
7061 	 C 	 15.703049 	 26.606460 	 46.143636 	 C 	 1  ala 	 1.000000 
7062 	 C 	 15.166354 	 26.818900 	 46.960231 	 C 	 1  ala 	 1.000000 
7063 	 C 	 15.290489 	 27.298719 	 46.091690 	 C 	 1  ala 	 1.000000 
7064 	 C 	 14.436906 	 27.799421 	 46.235544 	 C 	 1  ala 	 1.000000 
7065 	 C 	 13.741004 	 28.367587 	 45.796331 	 C 	 1  ala 	 1.000000 
7066 	 C 	 14.213527 	 29.161327 	 45.413319 	 C 	 1  ala 	 1.000000 
7067 	 C 	 14.255807 	 29.619800 	 46.301021 	 C 	 1  ala 	 1.000000 
7068 	 C 	 13.576446 	 28.911657 	 46.108663 	 C 	 1  ala 	 1.000000 
7069 	 C 	 13.080758 	 29.687813 	 45.718951 	 C 	 1  ala 	 1.000000 
7070 	 C 	 12.273112 	 29.107357 	 45.615132 	 C 	 1  ala 	 1.000000 
7071 	 C 	 12.866766 	 29.247213 	 46.407606 	 C 	 1  ala 	 1.000000 
7072 	 C 	 12.955781 	 29.396561 	 47.392376 	 C 	 1  ala 	 1.000000 
7073 	 C 	 12.971402 	 28.396707 	 47.399347 	 C 	 1  ala 	 1.000000 
7074 	 C 	 13.957641 	 28.561721 	 47.389190 	 C 	 1  ala 	 1.000000 
7075 	 C 	 14.220078 	 28.195100 	 48.281780 	 C 	 1  ala 	 1.000000 
7076 	 C 	 14.438349 	 29.108258 	 48.626020 	 C 	 1  ala 	 1.000000 
7077 	 C 	 13.528667 	 29.281610 	 49.003415 	 C 	 1  ala 	 1.000000 
7078 	 C 	 13.621611 	 30.057888 	 49.626917 	 C 	 1  ala 	 1.000000 
7079 	 C 	 12.933991 	 29.340754 	 49.740489 	 C 	 1  ala 	 1.000000 
7080 	 C 	 13.394972 	 29.180160 	 50.613247 	 C 	 1  ala 	 1.000000 
7081 	 C 	 13.264670 	 28.192975 	 50.521122 	 C 	 1  ala 	 1.000000 
7082 	 C 	 12.798235 	 28.147523 	 51.404508 	 C 	 1  ala 	 1.000000 
7083 	 C 	 11.804530 	 28.140491 	 51.516316 	 C 	 1  ala 	 1.000000 
7084 	 C 	 11.401910 	 29.000634 	 51.203183 	 C 	 1  ala 	 1.000000 
7085 	 C 	 12.195453 	 29.045053 	 50.596294 	 C 	 1  ala 	 1.000000 
7086 	 C 	 11.369276 	 28.485670 	 50.529052 	 C 	 1  ala 	 1.000000 
7087 	 C 	 11.540844 	 28.912310 	 49.641052 	 C 	 1  ala 	 1.000000 
7088 	 C 	 11.160049 	 29.784780 	 49.334799 	 C 	 1  ala 	 1.000000 
7089 	 C 	 10.289393 	 29.562641 	 48.895924 	 C 	 1  ala 	 1.000000 
7090 	 C 	 9.652612 	 30.115953 	 48.358935 	 C 	 1  ala 	 1.000000 
7091 	 C 	 8.962982 	 30.431409 	 49.010777 	 C 	 1  ala 	 1.000000 
7092 	 C 	 9.106420 	 29.965237 	 49.883766 	 C 	 1  ala 	 1.000000 
7093 	 C 	 8.337169 	 30.145696 	 50.496699 	 C 	 1  ala 	 1.000000 
7094 	 C 	 9.075396 	 29.964536 	 49.846928 	 C 	 1  ala 	 1.000000 
7095 	 C 	 9.545823 	 30.821758 	 49.637481 	 C 	 1  ala 	 1.000000 
7096 	 C 	 10.056809 	 31.219518 	 48.875457 	 C 	 1  ala 	 1.000000 
7097 	 C 	 10.003242 	 32.077391 	 49.386519 	 C 	 1  ala 	 1.000000 
7098 	 C 	 10.356560 	 32.385056 	 48.503055 	 C 	 1  ala 	 1.000000 
7099 	 C 	 9.582832 	 32.377201 	 49.136524 	 C 	 1  ala 	 1.000000 
7100 	 C 	 9.658074 	 31.849352 	 48.290526 	 C 	 1  ala 	 1.000000 
7101 	 C 	 9.181211 	 32.686017 	 48.021096 	 C 	 1  ala 	 1.000000 
7102 	 C 	 8.497353 	 32.105154 	 48.462613 	 C 	 1  ala 	 1.000000 
7103 	 C 	 8.763224 	 33.049029 	 48.266617 	 C 	 1  ala 	 1.000000 
7104 	 C 	 8.908413 	 33.787686 	 47.608357 	 C 	 1  ala 	 1.000000 
7105 	 C 	 9.129324 	 32.946268 	 47.115189 	 C 	 1  ala 	 1.000000 
7106 	 C 	 9.317073 	 33.535632 	 47.900937 	 C 	 1  ala 	 1.000000 
7107 	 C 	 9.998231 	 34.161022 	 47.520267 	 C 	 1  ala 	 1.000000 
7108 	 C 	 10.975913 	 34.139533 	 47.311279 	 C 	 1  ala 	 1.000000 
7109 	 C 	 10.722022 	 33.455817 	 47.995436 	 C 	 1  ala 	 1.000000 
7110 	 C 	 11.618467 	 33.898565 	 48.014411 	 C 	 1  ala 	 1.000000 
7111 	 C 	 11.023725 	 34.596541 	 47.615524 	 C 	 1  ala 	 1.000000 
7112 	 C 	 11.397631 	 35.131971 	 48.372829 	 C 	 1  ala 	 1.000000 
7113 	 C 	 11.560439 	 34.264236 	 47.903223 	 C 	 1  ala 	 1.000000 
7114 	 C 	 11.807634 	 34.064400 	 46.955087 	 C 	 1  ala 	 1.000000 
7115 	 C 	 11.100283 	 33.372958 	 46.808249 	 C 	 1  ala 	 1.000000 
7116 	 C 	 11.469171 	 32.867987 	 47.588587 	 C 	 1  ala 	 1.000000 
7117 	 C 	 12.273714 	 32.341632 	 47.863650 	 C 	 1  ala 	 1.000000 
7118 	 C 	 12.269690 	 32.975687 	 47.090373 	 C 	 1  ala 	 1.000000 
7119 	 C 	 12.479719 	 33.863639 	 47.499555 	 C 	 1  ala 	 1.000000 
7120 	 C 	 11.490442 	 34.009397 	 47.490307 	 C 	 1  ala 	 1.000000 
7121 	 C 	 12.470469 	 33.953684 	 47.681211 	 C 	 1  ala 	 1.000000 
7122 	 C 	 12.749484 	 34.283187 	 48.583196 	 C 	 1  ala 	 1.000000 
7123 	 C 	 12.928385 	 33.648827 	 47.831145 	 C 	 1  ala 	 1.000000 
7124 	 C 	 13.578646 	 34.364163 	 47.575303 	 C 	 1  ala 	 1.000000 
7125 	 C 	 14.405616 	 34.215386 	 47.033098 	 C 	 1  ala 	 1.000000 
7126 	 C 	 13.927491 	 34.331348 	 47.903701 	 C 	 1  ala 	 1.000000 
7127 	 C 	 14.363555 	 34.848184 	 47.167000 	 C 	 1  ala 	 1.000000 
7128 	 C 	 14.070232 	 35.542901 	 46.510242 	 C 	 1  ala 	 1.000000 
7129 	 C 	 14.728136 	 35.604628 	 47.260810 	 C 	 1  ala 	 1.000000 
7130 	 C 	 14.632143 	 35.786765 	 48.239386 	 C 	 1  ala 	 1.000000 
7131 	 C 	 15.236657 	 36.447496 	 47.794418 	 C 	 1  ala 	 1.000000 
7132 	 C 	 15.637686 	 37.343474 	 47.985205 	 C 	 1  ala 	 1.000000 
7133 	 C 	 15.595451 	 36.522682 	 48.554868 	 C 	 1  ala 	 1.000000 
7134 	 C 	 15.135272 	 36.233399 	 49.394243 	 C 	 1  ala 	 1.000000 
7135 	 C 	 14.877139 	 36.282840 	 48.429400 	 C 	 1  ala 	 1.000000 
7136 	 C 	 15.501849 	 36.044030 	 47.685957 	 C 	 1  ala 	 1.000000 
7137 	 C 	 15.059472 	 35.452214 	 48.359793 	 C 	 1  ala 	 1.000000 
7138 	 C 	 15.603672 	 36.279897 	 48.222728 	 C 	 1  ala 	 1.000000 
7139 	 C 	 15.175971 	 35.512348 	 47.745297 	 C 	 1  ala 	 1.000000 
7140 	 C 	 14.326271 	 36.012375 	 47.912580 	 C 	 1  ala 	 1.000000 
7141 	 C 	 14.391681 	 36.504014 	 47.044241 	 C 	 1  ala 	 1.000000 
7142 	 C 	 15.038892 	 36.312425 	 46.306398 	 C 	 1  ala 	 1.000000 
7143 	 C 	 15.587856 	 36.696840 	 45.564196 	 C 	 1  ala 	 1.000000 
7144 	 C 	 16.334561 	 36.427369 	 46.172322 	 C 	 1  ala 	 1.000000 
7145 	 C 	 17.043212 	 36.281567 	 46.862652 	 C 	 1  ala 	 1.000000 
7146 	 C 	 17.246790 	 36.057854 	 45.909495 	 C 	 1  ala 	 1.000000 
7147 	 C 	 18.142240 	 36.308347 	 45.541496 	 C 	 1  ala 	 1.000000 
7148 	 C 	 17.369227 	 35.994034 	 44.990444 	 C 	 1  ala 	 1.000000 
7149 	 C 	 17.213315 	 36.981500 	 44.965904 	 C 	 1  ala 	 1.000000 
7150 	 C 	 16.550092 	 37.330496 	 44.303834 	 C 	 1  ala 	 1.000000 
7151 	 C 	 15.792110 	 36.757313 	 43.992507 	 C 	 1  ala 	 1.000000 
7152 	 C 	 15.854226 	 37.527973 	 44.626720 	 C 	 1  ala 	 1.000000 
7153 	 C 	 15.200516 	 36.991264 	 45.160205 	 C 	 1  ala 	 1.000000 
7154 	 C 	 15.864467 	 37.671845 	 45.470008 	 C 	 1  ala 	 1.000000 
7155 	 C 	 16.590180 	 37.649038 	 46.157628 	 C 	 1  ala 	 1.000000 
7156 	 C 	 16.999517 	 38.559918 	 46.105275 	 C 	 1  ala 	 1.000000 
7157 	 C 	 17.696860 	 38.847077 	 45.448577 	 C 	 1  ala 	 1.000000 
7158 	 C 	 16.778164 	 39.187048 	 45.247534 	 C 	 1  ala 	 1.000000 
7159 	 C 	 17.226979 	 38.680781 	 44.511152 	 C 	 1  ala 	 1.000000 
7160 	 C 	 18.128398 	 39.038337 	 44.267024 	 C 	 1  ala 	 1.000000 
7161 	 C 	 18.324143 	 40.005442 	 44.104565 	 C 	 1  ala 	 1.000000 
7162 	 C 	 19.121994 	 39.409431 	 44.195150 	 C 	 1  ala 	 1.000000 
7163 	 C 	 19.839716 	 39.760571 	 44.796462 	 C 	 1  ala 	 1.000000 
7164 	 C 	 19.648588 	 40.349716 	 45.581559 	 C 	 1  ala 	 1.000000 
7165 	 C 	 19.747697 	 40.515990 	 44.600473 	 C 	 1  ala 	 1.000000 
7166 	 C 	 20.067671 	 39.579857 	 44.454623 	 C 	 1  ala 	 1.000000 
7167 	 C 	 19.662922 	 39.719194 	 45.358373 	 C 	 1  ala 	 1.000000 
7168 	 C 	 19.583267 	 40.648044 	 45.720165 	 C 	 1  ala 	 1.000000 
7169 	 C 	 19.785959 	 41.261125 	 44.956589 	 C 	 1  ala 	 1.000000 
7170 	 C 	 19.143266 	 40.500755 	 44.862873 	 C 	 1  ala 	 1.000000 
7171 	 C 	 19.104916 	 40.674699 	 43.878865 	 C 	 1  ala 	 1.000000 
7172 	 C 	 18.812956 	 41.391117 	 44.512508 	 C 	 1  ala 	 1.000000 
7173 	 C 	 17.996086 	 40.836734 	 44.353191 	 C 	 1  ala 	 1.000000 
7174 	 C 	 17.373619 	 40.061410 	 44.459997 	 C 	 1  ala 	 1.000000 
7175 	 C 	 17.242927 	 40.820556 	 45.097662 	 C 	 1  ala 	 1.000000 
7176 	 C 	 16.557402 	 40.476666 	 44.455948 	 C 	 1  ala 	 1.000000 
7177 	 C 	 17.142434 	 41.281980 	 44.359993 	 C 	 1  ala 	 1.000000 
7178 	 C 	 16.897153 	 40.313529 	 44.404042 	 C 	 1  ala 	 1.000000 
7179 	 C 	 16.843103 	 40.250766 	 43.407478 	 C 	 1  ala 	 1.000000 
7180 	 C 	 16.374219 	 40.331664 	 42.527931 	 C 	 1  ala 	 1.000000 
7181 	 C 	 16.926982 	 41.151512 	 42.378590 	 C 	 1  ala 	 1.000000 
7182 	 C 	 17.524455 	 41.836143 	 41.961089 	 C 	 1  ala 	 1.000000 
7183 	 C 	 16.782906 	 41.623163 	 42.597285 	 C 	 1  ala 	 1.000000 
7184 	 C 	 17.750101 	 41.818584 	 42.759594 	 C 	 1  ala 	 1.000000 
7185 	 C 	 17.924786 	 41.745880 	 41.777658 	 C 	 1  ala 	 1.000000 
7186 	 C 	 18.829202 	 41.327464 	 41.694228 	 C 	 1  ala 	 1.000000 
7187 	 C 	 18.770583 	 40.872655 	 40.805570 	 C 	 1  ala 	 1.000000 
7188 	 C 	 18.611156 	 39.918326 	 41.058236 	 C 	 1  ala 	 1.000000 
7189 	 C 	 19.450891 	 40.245027 	 41.491954 	 C 	 1  ala 	 1.000000 
7190 	 C 	 20.355708 	 40.128212 	 41.901418 	 C 	 1  ala 	 1.000000 
7191 	 C 	 20.294898 	 39.527439 	 41.104314 	 C 	 1  ala 	 1.000000 
7192 	 C 	 20.235847 	 39.953677 	 40.201632 	 C 	 1  ala 	 1.000000 
7193 	 C 	 21.165340 	 39.756314 	 39.890039 	 C 	 1  ala 	 1.000000 
7194 	 C 	 21.436040 	 40.717849 	 39.936637 	 C 	 1  ala 	 1.000000 
7195 	 C 	 20.858615 	 40.441822 	 39.168269 	 C 	 1  ala 	 1.000000 
7196 	 C 	 20.343434 	 40.594289 	 40.011680 	 C 	 1  ala 	 1.000000 
7197 	 C 	 19.406409 	 40.929616 	 39.914006 	 C 	 1  ala 	 1.000000 
7198 	 C 	 19.723748 	 40.610677 	 40.807075 	 C 	 1  ala 	 1.000000 
7199 	 C 	 20.068467 	 41.207700 	 40.082692 	 C 	 1  ala 	 1.000000 
7200 	 C 	 20.904038 	 41.756749 	 40.063523 	 C 	 1  ala 	 1.000000 
7201 	 C 	 21.582674 	 41.122845 	 40.434493 	 C 	 1  ala 	 1.000000 
7202 	 C 	 21.000959 	 41.384646 	 41.204602 	 C 	 1  ala 	 1.000000 
7203 	 C 	 21.872814 	 40.919703 	 41.050668 	 C 	 1  ala 	 1.000000 
7204 	 C 	 21.585667 	 40.874270 	 42.007476 	 C 	 1  ala 	 1.000000 
7205 	 C 	 21.601095 	 41.870254 	 41.919280 	 C 	 1  ala 	 1.000000 
7206 	 C 	 21.388133 	 40.947283 	 41.598700 	 C 	 1  ala 	 1.000000 
7207 	 C 	 21.232524 	 39.961759 	 41.666003 	 C 	 1  ala 	 1.000000 
7208 	 C 	 21.109078 	 40.612353 	 40.916677 	 C 	 1  ala 	 1.000000 
7209 	 C 	 21.459646 	 41.453500 	 40.504885 	 C 	 1  ala 	 1.000000 
7210 	 C 	 21.701640 	 42.120497 	 41.209551 	 C 	 1  ala 	 1.000000 
7211 	 C 	 22.423993 	 42.080737 	 40.519170 	 C 	 1  ala 	 1.000000 
7212 	 C 	 22.266483 	 42.817203 	 41.177053 	 C 	 1  ala 	 1.000000 
7213 	 C 	 21.857995 	 43.655859 	 41.537320 	 C 	 1  ala 	 1.000000 
7214 	 C 	 22.119834 	 44.459532 	 42.071689 	 C 	 1  ala 	 1.000000 
7215 	 C 	 22.910878 	 44.469881 	 41.460017 	 C 	 1  ala 	 1.000000 
7216 	 C 	 22.657265 	 45.427751 	 41.325242 	 C 	 1  ala 	 1.000000 
7217 	 C 	 23.583784 	 45.745551 	 41.526652 	 C 	 1  ala 	 1.000000 
7218 	 C 	 22.735624 	 45.327601 	 41.852139 	 C 	 1  ala 	 1.000000 
7219 	 C 	 21.916193 	 45.900054 	 41.880949 	 C 	 1  ala 	 1.000000 
7220 	 C 	 22.818942 	 46.193790 	 41.566682 	 C 	 1  ala 	 1.000000 
7221 	 C 	 23.745760 	 45.825781 	 41.641370 	 C 	 1  ala 	 1.000000 
7222 	 C 	 23.990992 	 45.069401 	 41.034946 	 C 	 1  ala 	 1.000000 
7223 	 C 	 22.999020 	 45.067566 	 41.161391 	 C 	 1  ala 	 1.000000 
7224 	 C 	 23.654810 	 45.328924 	 41.869651 	 C 	 1  ala 	 1.000000 
7225 	 C 	 24.341229 	 45.753255 	 42.460220 	 C 	 1  ala 	 1.000000 
7226 	 C 	 24.479344 	 46.687345 	 42.789462 	 C 	 1  ala 	 1.000000 
7227 	 C 	 25.211384 	 46.978555 	 43.405347 	 C 	 1  ala 	 1.000000 
7228 	 C 	 25.416772 	 47.880317 	 43.785664 	 C 	 1  ala 	 1.000000 
7229 	 C 	 25.354032 	 47.222409 	 44.536145 	 C 	 1  ala 	 1.000000 
7230 	 C 	 26.023700 	 47.596963 	 45.177436 	 C 	 1  ala 	 1.000000 
7231 	 C 	 26.421538 	 47.707406 	 44.266652 	 C 	 1  ala 	 1.000000 
7232 	 C 	 26.229883 	 48.674967 	 44.431256 	 C 	 1  ala 	 1.000000 
7233 	 C 	 26.487409 	 48.261696 	 45.304690 	 C 	 1  ala 	 1.000000 
7234 	 C 	 25.915316 	 48.503219 	 46.088512 	 C 	 1  ala 	 1.000000 
7235 	 C 	 26.078258 	 48.011454 	 45.233166 	 C 	 1  ala 	 1.000000 
7236 	 C 	 26.830245 	 48.466051 	 45.710509 	 C 	 1  ala 	 1.000000 
7237 	 C 	 25.853894 	 48.578283 	 45.525732 	 C 	 1  ala 	 1.000000 
7238 	 C 	 25.339912 	 48.746382 	 44.684563 	 C 	 1  ala 	 1.000000 
7239 	 C 	 25.720260 	 48.839914 	 45.604665 	 C 	 1  ala 	 1.000000 
7240 	 C 	 25.650103 	 47.856624 	 45.772654 	 C 	 1  ala 	 1.000000 
7241 	 C 	 24.999783 	 48.009409 	 46.516792 	 C 	 1  ala 	 1.000000 
7242 	 C 	 24.879439 	 48.975682 	 46.289122 	 C 	 1  ala 	 1.000000 
7243 	 C 	 25.340050 	 48.769944 	 47.152551 	 C 	 1  ala 	 1.000000 
7244 	 C 	 25.174694 	 47.785419 	 47.210593 	 C 	 1  ala 	 1.000000 
7245 	 C 	 26.086741 	 48.182959 	 47.109932 	 C 	 1  ala 	 1.000000 
7246 	 C 	 26.442033 	 48.368738 	 48.026039 	 C 	 1  ala 	 1.000000 
7247 	 C 	 26.827917 	 48.879832 	 48.794073 	 C 	 1  ala 	 1.000000 
7248 	 C 	 27.075493 	 48.734905 	 49.752041 	 C 	 1  ala 	 1.000000 
7249 	 C 	 27.996850 	 48.847376 	 50.124133 	 C 	 1  ala 	 1.000000 
7250 	 C 	 27.141154 	 49.364709 	 50.136388 	 C 	 1  ala 	 1.000000 
7251 	 C 	 27.273281 	 49.570204 	 49.166690 	 C 	 1  ala 	 1.000000 
7252 	 C 	 28.186906 	 49.734173 	 48.794664 	 C 	 1  ala 	 1.000000 
7253 	 C 	 27.952814 	 50.527525 	 49.356620 	 C 	 1  ala 	 1.000000 
7254 	 C 	 26.955812 	 50.603223 	 49.340590 	 C 	 1  ala 	 1.000000 
7255 	 C 	 26.245723 	 51.168626 	 49.760225 	 C 	 1  ala 	 1.000000 
7256 	 C 	 27.047790 	 50.835184 	 49.264741 	 C 	 1  ala 	 1.000000 
7257 	 C 	 26.328725 	 51.316713 	 48.763666 	 C 	 1  ala 	 1.000000 
7258 	 C 	 27.225170 	 51.350675 	 49.205519 	 C 	 1  ala 	 1.000000 
7259 	 C 	 26.320206 	 51.306699 	 48.782310 	 C 	 1  ala 	 1.000000 
7260 	 C 	 26.208734 	 52.247763 	 48.462980 	 C 	 1  ala 	 1.000000 
7261 	 C 	 25.754213 	 52.268428 	 47.572483 	 C 	 1  ala 	 1.000000 
7262 	 C 	 25.872849 	 53.260178 	 47.621027 	 C 	 1  ala 	 1.000000 
7263 	 C 	 25.218013 	 52.880332 	 48.274407 	 C 	 1  ala 	 1.000000 
7264 	 C 	 25.171651 	 53.258054 	 49.199165 	 C 	 1  ala 	 1.000000 
7265 	 C 	 25.057710 	 53.254954 	 50.192647 	 C 	 1  ala 	 1.000000 
7266 	 C 	 24.613003 	 52.499399 	 49.711636 	 C 	 1  ala 	 1.000000 
7267 	 C 	 24.058244 	 53.084946 	 50.302718 	 C 	 1  ala 	 1.000000 
7268 	 C 	 23.082563 	 52.898894 	 50.418604 	 C 	 1  ala 	 1.000000 
7269 	 C 	 23.699472 	 53.356512 	 51.058924 	 C 	 1  ala 	 1.000000 
7270 	 C 	 23.759141 	 52.612483 	 51.724401 	 C 	 1  ala 	 1.000000 
7271 	 C 	 23.075594 	 52.048521 	 51.261034 	 C 	 1  ala 	 1.000000 
7272 	 C 	 23.313219 	 51.223568 	 50.748213 	 C 	 1  ala 	 1.000000 
7273 	 C 	 24.230634 	 50.825860 	 50.734852 	 C 	 1  ala 	 1.000000 
7274 	 C 	 24.324619 	 51.632440 	 51.318457 	 C 	 1  ala 	 1.000000 
7275 	 C 	 23.712085 	 52.151078 	 51.914962 	 C 	 1  ala 	 1.000000 
7276 	 C 	 24.628065 	 52.378082 	 51.584130 	 C 	 1  ala 	 1.000000 
7277 	 C 	 25.037299 	 52.869450 	 50.815309 	 C 	 1  ala 	 1.000000 
7278 	 C 	 25.206752 	 52.416283 	 51.690481 	 C 	 1  ala 	 1.000000 
7279 	 C 	 25.913540 	 52.105661 	 51.054900 	 C 	 1  ala 	 1.000000 
7280 	 C 	 26.348879 	 52.325821 	 51.927831 	 C 	 1  ala 	 1.000000 
7281 	 C 	 26.411699 	 52.126785 	 50.949855 	 C 	 1  ala 	 1.000000 
7282 	 C 	 27.187324 	 52.340588 	 51.543734 	 C 	 1  ala 	 1.000000 
7283 	 C 	 26.425013 	 52.987063 	 51.512903 	 C 	 1  ala 	 1.000000 
7284 	 C 	 25.821066 	 52.397028 	 50.977080 	 C 	 1  ala 	 1.000000 
7285 	 C 	 25.241180 	 52.710256 	 50.225003 	 C 	 1  ala 	 1.000000 
7286 	 C 	 24.371459 	 52.329049 	 49.911526 	 C 	 1  ala 	 1.000000 
7287 	 C 	 23.593060 	 52.928138 	 49.723943 	 C 	 1  ala 	 1.000000 
7288 	 C 	 23.667306 	 53.559499 	 50.495870 	 C 	 1  ala 	 1.000000 
7289 	 C 	 23.196343 	 52.803074 	 50.041981 	 C 	 1  ala 	 1.000000 
7290 	 C 	 23.461862 	 52.015337 	 49.486130 	 C 	 1  ala 	 1.000000 
7291 	 C 	 23.290356 	 51.637318 	 50.395903 	 C 	 1  ala 	 1.000000 
7292 	 C 	 22.429470 	 51.808244 	 49.916674 	 C 	 1  ala 	 1.000000 
7293 	 C 	 21.760738 	 51.108824 	 50.168884 	 C 	 1  ala 	 1.000000 
7294 	 C 	 21.909043 	 50.135242 	 50.342501 	 C 	 1  ala 	 1.000000 
7295 	 C 	 22.183098 	 49.257832 	 50.736260 	 C 	 1  ala 	 1.000000 
7296 	 C 	 21.354710 	 49.262986 	 51.296391 	 C 	 1  ala 	 1.000000 
7297 	 C 	 21.829113 	 49.021789 	 52.143011 	 C 	 1  ala 	 1.000000 
7298 	 C 	 22.422744 	 49.305846 	 52.895949 	 C 	 1  ala 	 1.000000 
7299 	 C 	 23.025972 	 48.512503 	 52.813958 	 C 	 1  ala 	 1.000000 
7300 	 C 	 22.740541 	 47.557205 	 52.736931 	 C 	 1  ala 	 1.000000 
7301 	 C 	 22.678121 	 46.730929 	 53.296728 	 C 	 1  ala 	 1.000000 
7302 	 C 	 22.711451 	 45.978255 	 52.639179 	 C 	 1  ala 	 1.000000 
7303 	 C 	 22.754208 	 45.386996 	 51.833831 	 C 	 1  ala 	 1.000000 
7304 	 C 	 22.152611 	 45.462296 	 51.038588 	 C 	 1  ala 	 1.000000 
7305 	 C 	 21.350439 	 45.766088 	 51.552622 	 C 	 1  ala 	 1.000000 
7306 	 C 	 21.039638 	 46.525329 	 52.124422 	 C 	 1  ala 	 1.000000 
7307 	 C 	 20.703680 	 47.062065 	 52.898404 	 C 	 1  ala 	 1.000000 
7308 	 C 	 21.124000 	 46.188637 	 52.652528 	 C 	 1  ala 	 1.000000 
7309 	 C 	 21.683296 	 45.715652 	 51.971739 	 C 	 1  ala 	 1.000000 
7310 	 C 	 21.090596 	 44.947940 	 51.728171 	 C 	 1  ala 	 1.000000 
7311 	 C 	 20.978381 	 43.956154 	 51.789554 	 C 	 1  ala 	 1.000000 
7312 	 C 	 20.473217 	 44.592147 	 51.206182 	 C 	 1  ala 	 1.000000 
7313 	 C 	 20.615557 	 43.661956 	 51.544537 	 C 	 1  ala 	 1.000000 
7314 	 C 	 21.548015 	 43.514371 	 51.874296 	 C 	 1  ala 	 1.000000 
7315 	 C 	 22.280776 	 43.376175 	 51.207990 	 C 	 1  ala 	 1.000000 
7316 	 C 	 22.822395 	 43.836997 	 51.911049 	 C 	 1  ala 	 1.000000 
7317 	 C 	 23.141235 	 43.082364 	 52.484520 	 C 	 1  ala 	 1.000000 
7318 	 C 	 22.821550 	 42.566318 	 53.279189 	 C 	 1  ala 	 1.000000 
7319 	 C 	 22.099388 	 43.017813 	 52.755134 	 C 	 1  ala 	 1.000000 
7320 	 C 	 22.199588 	 43.249707 	 53.722700 	 C 	 1  ala 	 1.000000 
7321 	 C 	 22.577882 	 42.487520 	 53.197378 	 C 	 1  ala 	 1.000000 
7322 	 C 	 21.697940 	 42.704162 	 53.620189 	 C 	 1  ala 	 1.000000 
7323 	 C 	 22.543976 	 42.192856 	 53.469228 	 C 	 1  ala 	 1.000000 
7324 	 C 	 21.786136 	 42.018111 	 52.840624 	 C 	 1  ala 	 1.000000 
7325 	 C 	 21.345953 	 41.887025 	 53.728912 	 C 	 1  ala 	 1.000000 
7326 	 C 	 21.019174 	 42.736575 	 53.314812 	 C 	 1  ala 	 1.000000 
7327 	 C 	 20.234662 	 42.906961 	 53.911059 	 C 	 1  ala 	 1.000000 
7328 	 C 	 19.950025 	 42.121767 	 53.361103 	 C 	 1  ala 	 1.000000 
7329 	 C 	 19.439824 	 42.822567 	 53.859674 	 C 	 1  ala 	 1.000000 
7330 	 C 	 18.843383 	 43.622623 	 53.795103 	 C 	 1  ala 	 1.000000 
7331 	 C 	 19.777130 	 43.783065 	 53.475139 	 C 	 1  ala 	 1.000000 
7332 	 C 	 18.783989 	 43.865190 	 53.391914 	 C 	 1  ala 	 1.000000 
7333 	 C 	 18.956284 	 43.030981 	 52.868073 	 C 	 1  ala 	 1.000000 
7334 	 C 	 18.910384 	 43.508501 	 51.990652 	 C 	 1  ala 	 1.000000 
7335 	 C 	 19.849459 	 43.228382 	 51.791472 	 C 	 1  ala 	 1.000000 
7336 	 C 	 19.482335 	 43.413460 	 50.879899 	 C 	 1  ala 	 1.000000 
7337 	 C 	 19.389196 	 42.898892 	 50.027522 	 C 	 1  ala 	 1.000000 
7338 	 C 	 19.337849 	 43.001293 	 51.020939 	 C 	 1  ala 	 1.000000 
7339 	 C 	 19.894510 	 43.807011 	 51.223293 	 C 	 1  ala 	 1.000000 
7340 	 C 	 20.471654 	 42.991113 	 51.258152 	 C 	 1  ala 	 1.000000 
7341 	 C 	 21.390181 	 43.164148 	 50.902670 	 C 	 1  ala 	 1.000000 
7342 	 C 	 21.212430 	 42.912518 	 51.854030 	 C 	 1  ala 	 1.000000 
7343 	 C 	 20.991041 	 43.702288 	 51.281972 	 C 	 1  ala 	 1.000000 
7344 	 C 	 21.283149 	 42.758311 	 51.435530 	 C 	 1  ala 	 1.000000 
7345 	 C 	 21.501104 	 43.346599 	 52.214256 	 C 	 1  ala 	 1.000000 
7346 	 C 	 21.394850 	 44.337556 	 52.132315 	 C 	 1  ala 	 1.000000 
7347 	 C 	 20.478565 	 44.158453 	 52.490566 	 C 	 1  ala 	 1.000000 
7348 	 C 	 20.930307 	 43.927413 	 53.352279 	 C 	 1  ala 	 1.000000 
7349 	 C 	 20.542580 	 44.003938 	 54.270871 	 C 	 1  ala 	 1.000000 
7350 	 C 	 21.099996 	 43.334901 	 53.779264 	 C 	 1  ala 	 1.000000 
7351 	 C 	 21.256661 	 42.889726 	 52.897632 	 C 	 1  ala 	 1.000000 
7352 	 C 	 21.072059 	 43.036807 	 53.869378 	 C 	 1  ala 	 1.000000 
7353 	 C 	 20.291226 	 42.496190 	 54.182481 	 C 	 1  ala 	 1.000000 
7354 	 C 	 20.591201 	 41.554600 	 54.029437 	 C 	 1  ala 	 1.000000 
7355 	 C 	 20.357315 	 41.171749 	 53.135724 	 C 	 1  ala 	 1.000000 
7356 	 C 	 19.815714 	 41.910312 	 53.537213 	 C 	 1  ala 	 1.000000 
7357 	 C 	 18.944743 	 41.908795 	 53.045882 	 C 	 1  ala 	 1.000000 
7358 	 C 	 18.496452 	 42.236585 	 53.877500 	 C 	 1  ala 	 1.000000 
7359 	 C 	 18.649843 	 41.389222 	 54.385877 	 C 	 1  ala 	 1.000000 
7360 	 C 	 18.639549 	 41.793241 	 53.471184 	 C 	 1  ala 	 1.000000 
7361 	 C 	 18.302488 	 41.149638 	 54.158327 	 C 	 1  ala 	 1.000000 
7362 	 C 	 18.977708 	 40.419223 	 54.055505 	 C 	 1  ala 	 1.000000 
7363 	 C 	 18.441516 	 39.582649 	 54.167943 	 C 	 1  ala 	 1.000000 
7364 	 C 	 18.108041 	 40.503178 	 53.964421 	 C 	 1  ala 	 1.000000 
7365 	 C 	 18.517387 	 40.487465 	 54.876665 	 C 	 1  ala 	 1.000000 
7366 	 C 	 18.542805 	 41.430565 	 55.208200 	 C 	 1  ala 	 1.000000 
7367 	 C 	 17.713628 	 41.860456 	 54.850903 	 C 	 1  ala 	 1.000000 
7368 	 C 	 17.496684 	 41.259345 	 54.081747 	 C 	 1  ala 	 1.000000 
7369 	 C 	 18.103179 	 40.484829 	 53.902057 	 C 	 1  ala 	 1.000000 
7370 	 C 	 17.290263 	 39.911471 	 53.799936 	 C 	 1  ala 	 1.000000 
7371 	 C 	 18.051985 	 40.502820 	 53.535196 	 C 	 1  ala 	 1.000000 
7372 	 C 	 17.132114 	 40.847684 	 53.722028 	 C 	 1  ala 	 1.000000 
7373 	 C 	 17.126563 	 41.207157 	 54.655167 	 C 	 1  ala 	 1.000000 
7374 	 C 	 17.896331 	 40.994938 	 55.257180 	 C 	 1  ala 	 1.000000 
7375 	 C 	 18.598121 	 41.614591 	 55.608635 	 C 	 1  ala 	 1.000000 
7376 	 C 	 18.472933 	 40.873343 	 54.949180 	 C 	 1  ala 	 1.000000 
7377 	 C 	 19.295145 	 41.220095 	 54.497815 	 C 	 1  ala 	 1.000000 
7378 	 C 	 18.763855 	 40.860009 	 55.264672 	 C 	 1  ala 	 1.000000 
7379 	 C 	 19.263819 	 41.222607 	 56.051157 	 C 	 1  ala 	 1.000000 
7380 	 C 	 19.317015 	 40.615629 	 56.844093 	 C 	 1  ala 	 1.000000 
7381 	 C 	 18.527478 	 40.147991 	 56.446669 	 C 	 1  ala 	 1.000000 
7382 	 C 	 19.141138 	 40.853703 	 56.092560 	 C 	 1  ala 	 1.000000 
7383 	 C 	 19.759972 	 40.744333 	 56.870431 	 C 	 1  ala 	 1.000000 
7384 	 C 	 19.785388 	 39.752303 	 56.747023 	 C 	 1  ala 	 1.000000 
7385 	 C 	 19.357573 	 40.656078 	 56.759864 	 C 	 1  ala 	 1.000000 
7386 	 C 	 18.756178 	 41.454895 	 56.745221 	 C 	 1  ala 	 1.000000 
7387 	 C 	 18.281944 	 42.328610 	 56.636941 	 C 	 1  ala 	 1.000000 
7388 	 C 	 18.625270 	 43.193207 	 56.270062 	 C 	 1  ala 	 1.000000 
7389 	 C 	 19.026944 	 43.113577 	 55.357748 	 C 	 1  ala 	 1.000000 
7390 	 C 	 18.961030 	 43.172513 	 54.361665 	 C 	 1  ala 	 1.000000 
7391 	 C 	 19.569910 	 42.668336 	 53.749236 	 C 	 1  ala 	 1.000000 
7392 	 C 	 19.833343 	 41.713539 	 53.886957 	 C 	 1  ala 	 1.000000 
7393 	 C 	 19.735852 	 40.791874 	 54.262495 	 C 	 1  ala 	 1.000000 
7394 	 C 	 19.792086 	 41.489100 	 53.547853 	 C 	 1  ala 	 1.000000 
7395 	 C 	 19.221174 	 41.654688 	 52.743714 	 C 	 1  ala 	 1.000000 
7396 	 C 	 20.031414 	 42.096217 	 52.358276 	 C 	 1  ala 	 1.000000 
7397 	 C 	 19.426831 	 41.978718 	 53.146105 	 C 	 1  ala 	 1.000000 
7398 	 C 	 18.995792 	 41.132624 	 52.832528 	 C 	 1  ala 	 1.000000 
7399 	 C 	 18.444204 	 41.045544 	 52.002969 	 C 	 1  ala 	 1.000000 
7400 	 C 	 17.913016 	 40.800159 	 52.813909 	 C 	 1  ala 	 1.000000 
7401 	 C 	 17.360673 	 41.192184 	 52.078223 	 C 	 1  ala 	 1.000000 
7402 	 C 	 17.610917 	 40.240117 	 52.254139 	 C 	 1  ala 	 1.000000 
7403 	 C 	 17.821417 	 40.292654 	 53.230320 	 C 	 1  ala 	 1.000000 
7404 	 C 	 18.011088 	 39.772144 	 54.062844 	 C 	 1  ala 	 1.000000 
7405 	 C 	 17.750926 	 39.965777 	 55.008794 	 C 	 1  ala 	 1.000000 
7406 	 C 	 17.000072 	 40.146089 	 55.644173 	 C 	 1  ala 	 1.000000 
7407 	 C 	 17.464804 	 40.486949 	 54.826959 	 C 	 1  ala 	 1.000000 
7408 	 C 	 18.017824 	 41.206276 	 54.406556 	 C 	 1  ala 	 1.000000 
7409 	 C 	 17.334724 	 41.914093 	 54.226638 	 C 	 1  ala 	 1.000000 
7410 	 C 	 17.349595 	 41.051056 	 53.721715 	 C 	 1  ala 	 1.000000 
7411 	 C 	 16.734966 	 40.422286 	 53.245398 	 C 	 1  ala 	 1.000000 
7412 	 C 	 16.266699 	 40.309930 	 54.121813 	 C 	 1  ala 	 1.000000 
7413 	 C 	 15.538292 	 39.774866 	 53.693877 	 C 	 1  ala 	 1.000000 
7414 	 C 	 15.089982 	 38.885032 	 53.778815 	 C 	 1  ala 	 1.000000 
7415 	 C 	 15.519165 	 39.590917 	 54.342313 	 C 	 1  ala 	 1.000000 
7416 	 C 	 14.698074 	 39.532864 	 53.774474 	 C 	 1  ala 	 1.000000 
7417 	 C 	 15.625547 	 39.448217 	 54.138657 	 C 	 1  ala 	 1.000000 
7418 	 C 	 15.097791 	 39.956380 	 53.458036 	 C 	 1  ala 	 1.000000 
7419 	 C 	 14.701820 	 40.862885 	 53.311560 	 C 	 1  ala 	 1.000000 
7420 	 C 	 14.237348 	 40.169162 	 52.761093 	 C 	 1  ala 	 1.000000 
7421 	 C 	 13.859144 	 39.550020 	 53.449297 	 C 	 1  ala 	 1.000000 
7422 	 C 	 14.277397 	 40.458157 	 53.430530 	 C 	 1  ala 	 1.000000 
7423 	 C 	 13.418241 	 40.969834 	 53.436710 	 C 	 1  ala 	 1.000000 
7424 	 C 	 12.775722 	 40.460259 	 54.008989 	 C 	 1  ala 	 1.000000 
7425 	 C 	 13.369471 	 40.150746 	 53.266248 	 C 	 1  ala 	 1.000000 
7426 	 C 	 12.429920 	 40.032222 	 52.945009 	 C 	 1  ala 	 1.000000 
7427 	 C 	 11.893692 	 39.192012 	 52.864350 	 C 	 1  ala 	 1.000000 
7428 	 C 	 12.365275 	 38.341399 	 53.096874 	 C 	 1  ala 	 1.000000 
7429 	 C 	 11.959094 	 38.855744 	 53.852166 	 C 	 1  ala 	 1.000000 
7430 	 C 	 12.464919 	 39.554065 	 53.345719 	 C 	 1  ala 	 1.000000 
7431 	 C 	 13.437420 	 39.373583 	 53.198517 	 C 	 1  ala 	 1.000000 
7432 	 C 	 13.111659 	 39.552733 	 54.126841 	 C 	 1  ala 	 1.000000 
7433 	 C 	 13.546382 	 39.644364 	 55.022731 	 C 	 1  ala 	 1.000000 
7434 	 C 	 13.578321 	 38.679945 	 54.760287 	 C 	 1  ala 	 1.000000 
7435 	 C 	 12.830707 	 38.033216 	 54.609238 	 C 	 1  ala 	 1.000000 
7436 	 C 	 12.591836 	 38.258505 	 53.664683 	 C 	 1  ala 	 1.000000 
7437 	 C 	 13.339058 	 38.270246 	 53.000211 	 C 	 1  ala 	 1.000000 
7438 	 C 	 13.208510 	 38.984369 	 52.312473 	 C 	 1  ala 	 1.000000 
7439 	 C 	 13.042493 	 39.404660 	 53.204546 	 C 	 1  ala 	 1.000000 
7440 	 C 	 13.383152 	 38.931248 	 54.016846 	 C 	 1  ala 	 1.000000 
7441 	 C 	 13.774209 	 38.013825 	 53.943304 	 C 	 1  ala 	 1.000000 
7442 	 C 	 13.727917 	 38.442825 	 53.041187 	 C 	 1  ala 	 1.000000 
7443 	 C 	 12.894996 	 37.897559 	 53.135678 	 C 	 1  ala 	 1.000000 
7444 	 C 	 12.438162 	 38.557975 	 52.539730 	 C 	 1  ala 	 1.000000 
7445 	 C 	 13.338121 	 38.171201 	 52.338532 	 C 	 1  ala 	 1.000000 
7446 	 C 	 13.032450 	 39.016012 	 52.777690 	 C 	 1  ala 	 1.000000 
7447 	 C 	 12.515506 	 38.655720 	 52.001186 	 C 	 1  ala 	 1.000000 
7448 	 C 	 12.107118 	 39.492758 	 51.637062 	 C 	 1  ala 	 1.000000 
7449 	 C 	 11.569804 	 40.086066 	 52.236462 	 C 	 1  ala 	 1.000000 
7450 	 O 	 11.022215 	 40.722836 	 51.693628 	 O 	 1  ala 	 1.000000 
7451 	 C 	 11.913768 	 40.474302 	 52.072260 	 C 	 1  ala 	 1.000000 
7452 	 C 	 12.442371 	 39.629311 	 52.153317 	 C 	 1  ala 	 1.000000 
7453 	 C 	 12.039846 	 39.634702 	 51.237924 	 C 	 1  ala 	 1.000000 
7454 	 C 	 12.322401 	 39.342292 	 50.324327 	 C 	 1  ala 	 1.000000 
7455 	 C 	 11.856992 	 39.281226 	 49.441340 	 C 	 1  ala 	 1.000000 
7456 	 C 	 12.756069 	 38.845890 	 49.395047 	 C 	 1  ala 	 1.000000 
7457 	 C 	 13.423575 	 39.239007 	 48.762676 	 C 	 1  ala 	 1.000000 
7458 	 C 	 14.417617 	 39.148896 	 48.701343 	 C 	 1  ala 	 1.000000 
7459 	 C 	 14.148351 	 40.044508 	 49.055426 	 C 	 1  ala 	 1.000000 
7460 	 C 	 15.115513 	 40.252283 	 49.201804 	 C 	 1  ala 	 1.000000 
7461 	 C 	 15.604871 	 40.995256 	 49.658444 	 C 	 1  ala 	 1.000000 
7462 	 C 	 15.676871 	 41.922989 	 49.292209 	 C 	 1  ala 	 1.000000 
7463 	 C 	 16.421277 	 41.368197 	 49.663781 	 C 	 1  ala 	 1.000000 
7464 	 C 	 15.974843 	 41.211403 	 50.544754 	 C 	 1  ala 	 1.000000 
7465 	 C 	 16.444274 	 41.425112 	 51.401470 	 C 	 1  ala 	 1.000000 
7466 	 C 	 16.830557 	 42.335092 	 51.250734 	 C 	 1  ala 	 1.000000 
7467 	 C 	 16.685622 	 42.714781 	 52.164424 	 C 	 1  ala 	 1.000000 
7468 	 C 	 16.297585 	 41.898040 	 52.591463 	 C 	 1  ala 	 1.000000 
7469 	 C 	 16.478668 	 42.779397 	 53.027834 	 C 	 1  ala 	 1.000000 
7470 	 C 	 16.361949 	 41.829672 	 52.737318 	 C 	 1  ala 	 1.000000 
7471 	 C 	 16.066389 	 41.037587 	 52.203234 	 C 	 1  ala 	 1.000000 
7472 	 C 	 15.145417 	 41.195953 	 52.559227 	 C 	 1  ala 	 1.000000 
7473 	 C 	 15.742234 	 41.193841 	 53.361602 	 C 	 1  ala 	 1.000000 
7474 	 C 	 15.227453 	 41.454840 	 52.544975 	 C 	 1  ala 	 1.000000 
7475 	 C 	 16.204339 	 41.533688 	 52.346291 	 C 	 1  ala 	 1.000000 
7476 	 C 	 15.944362 	 42.439823 	 52.012630 	 C 	 1  ala 	 1.000000 
7477 	 C 	 16.627162 	 42.652779 	 52.711510 	 C 	 1  ala 	 1.000000 
7478 	 C 	 17.161096 	 42.326037 	 53.491353 	 C 	 1  ala 	 1.000000 
7479 	 C 	 17.084260 	 41.704120 	 52.712048 	 C 	 1  ala 	 1.000000 
7480 	 C 	 17.018923 	 40.717478 	 52.861276 	 C 	 1  ala 	 1.000000 
7481 	 C 	 16.775966 	 40.976435 	 51.926443 	 C 	 1  ala 	 1.000000 
7482 	 C 	 16.561500 	 41.896603 	 51.598886 	 C 	 1  ala 	 1.000000 
7483 	 C 	 15.780819 	 42.517421 	 51.527315 	 C 	 1  ala 	 1.000000 
7484 	 C 	 15.322715 	 43.382631 	 51.731163 	 C 	 1  ala 	 1.000000 
7485 	 C 	 14.735123 	 42.692729 	 52.153976 	 C 	 1  ala 	 1.000000 
7486 	 C 	 14.800605 	 41.718368 	 51.938729 	 C 	 1  ala 	 1.000000 
7487 	 C 	 14.756010 	 41.596305 	 50.947209 	 C 	 1  ala 	 1.000000 
7488 	 C 	 15.328520 	 41.618730 	 51.766800 	 C 	 1  ala 	 1.000000 
7489 	 C 	 14.567626 	 42.002062 	 52.290342 	 C 	 1  ala 	 1.000000 
7490 	 C 	 13.696203 	 41.666666 	 51.932388 	 C 	 1  ala 	 1.000000 
7491 	 C 	 14.635543 	 41.528018 	 52.246103 	 C 	 1  ala 	 1.000000 
7492 	 C 	 14.424589 	 41.317994 	 51.291436 	 C 	 1  ala 	 1.000000 
7493 	 C 	 14.360047 	 40.435565 	 51.757434 	 C 	 1  ala 	 1.000000 
7494 	 C 	 14.025054 	 40.675932 	 50.846389 	 C 	 1  ala 	 1.000000 
7495 	 C 	 13.409553 	 40.397348 	 51.583647 	 C 	 1  ala 	 1.000000 
7496 	 C 	 14.408010 	 40.426661 	 51.630797 	 C 	 1  ala 	 1.000000 
7497 	 C 	 15.137161 	 39.851342 	 52.001399 	 C 	 1  ala 	 1.000000 
7498 	 C 	 14.908734 	 40.317791 	 52.855944 	 C 	 1  ala 	 1.000000 
7499 	 C 	 15.205379 	 39.362810 	 52.859638 	 C 	 1  ala 	 1.000000 
7500 	 C 	 16.194325 	 39.244062 	 52.948431 	 C 	 1  ala 	 1.000000 
7501 	 C 	 17.123327 	 39.277721 	 52.579891 	 C 	 1  ala 	 1.000000 
7502 	 C 	 16.652538 	 38.868504 	 51.798291 	 C 	 1  ala 	 1.000000 
7503 	 C 	 15.946428 	 38.222490 	 52.088245 	 C 	 1  ala 	 1.000000 
7504 	 C 	 15.362808 	 38.946688 	 52.455567 	 C 	 1  ala 	 1.000000 
7505 	 C 	 15.378861 	 39.522527 	 51.638161 	 C 	 1  ala 	 1.000000 
7506 	 C 	 14.542863 	 39.997976 	 51.912124 	 C 	 1  ala 	 1.000000 
7507 	 C 	 14.060641 	 39.971588 	 52.787775 	 C 	 1  ala 	 1.000000 
7508 	 C 	 14.295620 	 39.454859 	 53.611047 	 C 	 1  ala 	 1.000000 
7509 	 C 	 15.257757 	 39.245963 	 53.435965 	 C 	 1  ala 	 1.000000 
7510 	 C 	 14.972934 	 38.618534 	 52.711252 	 C 	 1  ala 	 1.000000 
7511 	 C 	 15.560261 	 39.329782 	 52.325024 	 C 	 1  ala 	 1.000000 
7512 	 C 	 14.755879 	 39.618239 	 51.805637 	 C 	 1  ala 	 1.000000 
7513 	 C 	 14.841392 	 40.537735 	 51.421950 	 C 	 1  ala 	 1.000000 
7514 	 C 	 15.205081 	 40.453363 	 50.494259 	 C 	 1  ala 	 1.000000 
7515 	 C 	 15.583422 	 39.818943 	 49.820190 	 C 	 1  ala 	 1.000000 
7516 	 C 	 15.171396 	 39.824626 	 50.731344 	 C 	 1  ala 	 1.000000 
7517 	 C 	 15.497652 	 39.352498 	 49.912410 	 C 	 1  ala 	 1.000000 
7518 	 C 	 16.331998 	 39.145389 	 49.401555 	 C 	 1  ala 	 1.000000 
7519 	 C 	 16.005392 	 39.728573 	 48.657764 	 C 	 1  ala 	 1.000000 
7520 	 C 	 15.013176 	 39.622851 	 48.591960 	 C 	 1  ala 	 1.000000 
7521 	 C 	 15.693783 	 40.169612 	 48.104285 	 C 	 1  ala 	 1.000000 
7522 	 C 	 14.809503 	 40.374305 	 48.523986 	 C 	 1  ala 	 1.000000 
7523 	 C 	 15.274087 	 41.022759 	 47.920936 	 C 	 1  ala 	 1.000000 
7524 	 C 	 15.520958 	 40.601198 	 48.793484 	 C 	 1  ala 	 1.000000 
7525 	 C 	 15.397334 	 41.435003 	 49.331525 	 C 	 1  ala 	 1.000000 
7526 	 C 	 15.469099 	 41.694514 	 50.294595 	 C 	 1  ala 	 1.000000 
7527 	 C 	 15.579465 	 42.632532 	 49.966049 	 C 	 1  ala 	 1.000000 
7528 	 C 	 15.274122 	 43.490973 	 49.553927 	 C 	 1  ala 	 1.000000 
7529 	 C 	 15.572676 	 42.987552 	 50.364750 	 C 	 1  ala 	 1.000000 
7530 	 C 	 14.688674 	 42.900803 	 49.905386 	 C 	 1  ala 	 1.000000 
7531 	 C 	 14.045888 	 43.663625 	 49.835184 	 C 	 1  ala 	 1.000000 
7532 	 C 	 14.410358 	 43.431864 	 50.737098 	 C 	 1  ala 	 1.000000 
7533 	 C 	 13.911741 	 43.928706 	 51.447401 	 C 	 1  ala 	 1.000000 
7534 	 C 	 13.321358 	 43.621911 	 50.700859 	 C 	 1  ala 	 1.000000 
7535 	 C 	 13.105965 	 42.723122 	 51.082676 	 C 	 1  ala 	 1.000000 
7536 	 C 	 13.110395 	 42.613408 	 50.088723 	 C 	 1  ala 	 1.000000 
7537 	 C 	 12.397476 	 43.075364 	 49.561140 	 C 	 1  ala 	 1.000000 
7538 	 C 	 11.816614 	 43.104210 	 50.374630 	 C 	 1  ala 	 1.000000 
7539 	 C 	 11.273324 	 43.400421 	 49.589076 	 C 	 1  ala 	 1.000000 
7540 	 C 	 10.499466 	 44.033540 	 49.571651 	 C 	 1  ala 	 1.000000 
7541 	 C 	 11.099822 	 44.319487 	 48.824787 	 C 	 1  ala 	 1.000000 
7542 	 C 	 10.514058 	 44.528901 	 48.041827 	 C 	 1  ala 	 1.000000 
7543 	 C 	 9.987421 	 44.383766 	 47.204217 	 C 	 1  ala 	 1.000000 
7544 	 C 	 9.797153 	 45.313402 	 46.888661 	 C 	 1  ala 	 1.000000 
7545 	 C 	 10.334024 	 45.915820 	 46.298016 	 C 	 1  ala 	 1.000000 
7546 	 C 	 11.004274 	 45.547238 	 46.942154 	 C 	 1  ala 	 1.000000 
7547 	 C 	 11.758052 	 44.919708 	 46.747153 	 C 	 1  ala 	 1.000000 
7548 	 C 	 11.754756 	 45.828048 	 47.165374 	 C 	 1  ala 	 1.000000 
7549 	 C 	 12.147056 	 45.243007 	 47.875182 	 C 	 1  ala 	 1.000000 
7550 	 N 	 11.160494 	 45.212778 	 47.714617 	 N 	 1  ala 	 1.000000 
7551 	 C 	 10.590495 	 45.320788 	 46.900102 	 C 	 1  ala 	 1.000000 
7552 	 C 	 10.517000 	 44.332583 	 46.765759 	 C 	 1  ala 	 1.000000 
7553 	 C 	 11.335743 	 44.906528 	 46.750067 	 C 	 1  ala 	 1.000000 
7554 	 C 	 10.540331 	 44.487111 	 46.312563 	 C 	 1  ala 	 1.000000 
7555 	 C 	 10.467422 	 45.355223 	 45.821577 	 C 	 1  ala 	 1.000000 
7556 	 C 	 11.020182 	 44.611106 	 46.196739 	 C 	 1  ala 	 1.000000 
7557 	 C 	 11.628141 	 43.872729 	 45.904874 	 C 	 1  ala 	 1.000000 
7558 	 C 	 11.812574 	 44.177100 	 44.970346 	 C 	 1  ala 	 1.000000 
7559 	 C 	 11.886186 	 43.286844 	 44.520875 	 C 	 1  ala 	 1.000000 
7560 	 C 	 12.710898 	 43.218526 	 45.082286 	 C 	 1  ala 	 1.000000 
7561 	 C 	 12.818247 	 42.335300 	 45.538782 	 C 	 1  ala 	 1.000000 
7562 	 C 	 12.456287 	 42.913089 	 44.807246 	 C 	 1  ala 	 1.000000 
7563 	 C 	 13.312873 	 42.788794 	 45.308056 	 C 	 1  ala 	 1.000000 
7564 	 C 	 13.705710 	 43.558498 	 44.804832 	 C 	 1  ala 	 1.000000 
7565 	 C 	 14.163529 	 43.555785 	 43.915790 	 C 	 1  ala 	 1.000000 
7566 	 C 	 13.850847 	 42.758596 	 43.399342 	 C 	 1  ala 	 1.000000 
7567 	 C 	 13.658403 	 43.208376 	 44.271502 	 C 	 1  ala 	 1.000000 
7568 	 C 	 13.142100 	 43.666166 	 43.547720 	 C 	 1  ala 	 1.000000 
7569 	 C 	 12.697454 	 44.502615 	 43.227339 	 C 	 1  ala 	 1.000000 
7570 	 C 	 13.506657 	 44.723880 	 42.683067 	 C 	 1  ala 	 1.000000 
7571 	 C 	 12.804110 	 45.435517 	 42.682890 	 C 	 1  ala 	 1.000000 
7572 	 C 	 12.568103 	 45.597956 	 43.640968 	 C 	 1  ala 	 1.000000 
7573 	 C 	 12.706425 	 46.577038 	 43.790187 	 C 	 1  ala 	 1.000000 
7574 	 C 	 12.028643 	 46.945960 	 44.426197 	 C 	 1  ala 	 1.000000 
7575 	 C 	 11.125108 	 46.650606 	 44.115728 	 C 	 1  ala 	 1.000000 
7576 	 C 	 11.663954 	 45.870914 	 44.434671 	 C 	 1  ala 	 1.000000 
7577 	 C 	 12.499459 	 45.981237 	 43.896377 	 C 	 1  ala 	 1.000000 
7578 	 C 	 13.096842 	 46.144523 	 43.111220 	 C 	 1  ala 	 1.000000 
7579 	 C 	 12.598658 	 45.788117 	 43.901656 	 C 	 1  ala 	 1.000000 
7580 	 C 	 12.938570 	 46.430591 	 44.588451 	 C 	 1  ala 	 1.000000 
7581 	 C 	 13.515950 	 45.666527 	 44.876267 	 C 	 1  ala 	 1.000000 
7582 	 C 	 12.539445 	 45.806773 	 44.712654 	 C 	 1  ala 	 1.000000 
7583 	 C 	 12.824854 	 45.039905 	 45.287506 	 C 	 1  ala 	 1.000000 
7584 	 C 	 13.172466 	 44.720801 	 46.169174 	 C 	 1  ala 	 1.000000 
7585 	 C 	 13.948213 	 45.160305 	 46.622001 	 C 	 1  ala 	 1.000000 
7586 	 C 	 14.118200 	 45.572691 	 47.517011 	 C 	 1  ala 	 1.000000 
7587 	 C 	 13.315305 	 45.618443 	 48.111373 	 C 	 1  ala 	 1.000000 
7588 	 C 	 14.023571 	 46.091275 	 47.587168 	 C 	 1  ala 	 1.000000 
7589 	 C 	 13.614967 	 45.645208 	 46.790885 	 C 	 1  ala 	 1.000000 
7590 	 C 	 13.662805 	 44.804959 	 47.330971 	 C 	 1  ala 	 1.000000 
7591 	 C 	 13.362147 	 44.422557 	 46.457258 	 C 	 1  ala 	 1.000000 
7592 	 C 	 13.444085 	 43.493808 	 46.818797 	 C 	 1  ala 	 1.000000 
7593 	 C 	 14.319442 	 43.736226 	 47.237108 	 C 	 1  ala 	 1.000000 
7594 	 C 	 14.261571 	 43.264791 	 48.117108 	 C 	 1  ala 	 1.000000 
7595 	 C 	 15.056224 	 43.486785 	 47.552090 	 C 	 1  ala 	 1.000000 
7596 	 C 	 15.871117 	 44.037877 	 47.372516 	 C 	 1  ala 	 1.000000 
7597 	 C 	 14.903426 	 44.243761 	 47.226962 	 C 	 1  ala 	 1.000000 
7598 	 C 	 14.538843 	 44.976312 	 46.652116 	 C 	 1  ala 	 1.000000 
7599 	 C 	 13.553447 	 44.961430 	 46.482489 	 C 	 1  ala 	 1.000000 
7600 	 C 	 14.387114 	 44.942954 	 45.930532 	 C 	 1  ala 	 1.000000 
7601 	 C 	 14.901447 	 45.307070 	 45.154077 	 C 	 1  ala 	 1.000000 
7602 	 C 	 15.547909 	 45.566037 	 45.871728 	 C 	 1  ala 	 1.000000 
7603 	 C 	 15.341599 	 44.588092 	 45.904269 	 C 	 1  ala 	 1.000000 
7604 	 C 	 15.393741 	 45.091926 	 45.042044 	 C 	 1  ala 	 1.000000 
7605 	 C 	 15.041869 	 44.773725 	 44.161740 	 C 	 1  ala 	 1.000000 
7606 	 C 	 15.898051 	 44.806740 	 44.677359 	 C 	 1  ala 	 1.000000 
7607 	 C 	 16.740677 	 44.787476 	 44.139205 	 C 	 1  ala 	 1.000000 
7608 	 C 	 17.584236 	 45.308586 	 44.009384 	 C 	 1  ala 	 1.000000 
7609 	 C 	 17.620514 	 45.931297 	 43.227773 	 C 	 1  ala 	 1.000000 
7610 	 C 	 17.230971 	 46.267145 	 44.085364 	 C 	 1  ala 	 1.000000 
7611 	 C 	 17.675046 	 46.021602 	 44.947052 	 C 	 1  ala 	 1.000000 
7612 	 C 	 18.670072 	 46.121005 	 44.953496 	 C 	 1  ala 	 1.000000 
7613 	 C 	 18.371051 	 46.206184 	 45.903933 	 C 	 1  ala 	 1.000000 
7614 	 C 	 18.914198 	 45.478124 	 45.485699 	 C 	 1  ala 	 1.000000 
7615 	 C 	 19.102305 	 44.555898 	 45.147891 	 C 	 1  ala 	 1.000000 
7616 	 C 	 19.300485 	 44.912134 	 44.234753 	 C 	 1  ala 	 1.000000 
7617 	 C 	 18.665560 	 44.925676 	 43.462298 	 C 	 1  ala 	 1.000000 
7618 	 C 	 18.583794 	 44.648002 	 44.419487 	 C 	 1  ala 	 1.000000 
7619 	 C 	 18.931298 	 45.562646 	 44.212927 	 C 	 1  ala 	 1.000000 
7620 	 C 	 18.258625 	 45.226996 	 43.553494 	 C 	 1  ala 	 1.000000 
7621 	 C 	 18.129782 	 44.781531 	 42.667515 	 C 	 1  ala 	 1.000000 
7622 	 C 	 19.077417 	 44.847684 	 42.355085 	 C 	 1  ala 	 1.000000 
7623 	 C 	 18.552406 	 44.389958 	 41.637554 	 C 	 1  ala 	 1.000000 
7624 	 C 	 17.890258 	 45.133495 	 41.544208 	 C 	 1  ala 	 1.000000 
7625 	 C 	 17.189138 	 45.530935 	 42.136214 	 C 	 1  ala 	 1.000000 
7626 	 C 	 17.528297 	 44.607029 	 41.959105 	 C 	 1  ala 	 1.000000 
7627 	 C 	 16.873859 	 45.259629 	 42.340974 	 C 	 1  ala 	 1.000000 
7628 	 C 	 17.144240 	 44.501867 	 41.747096 	 C 	 1  ala 	 1.000000 
7629 	 C 	 18.113210 	 44.281535 	 41.635061 	 C 	 1  ala 	 1.000000 
7630 	 C 	 17.958001 	 43.685632 	 42.422976 	 C 	 1  ala 	 1.000000 
7631 	 C 	 18.791378 	 43.436543 	 42.916370 	 C 	 1  ala 	 1.000000 
7632 	 C 	 19.070924 	 44.000595 	 43.693351 	 C 	 1  ala 	 1.000000 
7633 	 C 	 19.951579 	 44.004164 	 44.167097 	 C 	 1  ala 	 1.000000 
7634 	 C 	 20.111442 	 44.866716 	 44.647147 	 C 	 1  ala 	 1.000000 
7635 	 C 	 20.399301 	 45.823183 	 44.695196 	 C 	 1  ala 	 1.000000 
7636 	 C 	 20.822025 	 45.874497 	 45.600000 	 C 	 1  ala 	 1.000000 
7637 	 C 	 21.438738 	 46.478055 	 46.105354 	 C 	 1  ala 	 1.000000 
7638 	 C 	 21.142138 	 47.352331 	 46.489633 	 C 	 1  ala 	 1.000000 
7639 	 C 	 20.197919 	 47.445501 	 46.173769 	 C 	 1  ala 	 1.000000 
7640 	 C 	 20.069835 	 48.049992 	 46.960016 	 C 	 1  ala 	 1.000000 
7641 	 C 	 20.934389 	 48.291705 	 46.519423 	 C 	 1  ala 	 1.000000 
7642 	 C 	 21.429783 	 47.444835 	 46.326047 	 C 	 1  ala 	 1.000000 
7643 	 C 	 20.556964 	 47.931259 	 46.286329 	 C 	 1  ala 	 1.000000 
7644 	 C 	 21.139532 	 48.740782 	 46.359031 	 C 	 1  ala 	 1.000000 
7645 	 C 	 21.943784 	 48.619938 	 46.940904 	 C 	 1  ala 	 1.000000 
7646 	 C 	 21.191158 	 48.389027 	 47.557534 	 C 	 1  ala 	 1.000000 
7647 	 C 	 21.239262 	 48.449429 	 48.554548 	 C 	 1  ala 	 1.000000 
7648 	 C 	 20.885253 	 48.709658 	 47.656240 	 C 	 1  ala 	 1.000000 
7649 	 C 	 20.810297 	 49.474064 	 48.296603 	 C 	 1  ala 	 1.000000 
7650 	 C 	 21.399009 	 48.673506 	 48.408516 	 C 	 1  ala 	 1.000000 
7651 	 C 	 21.996304 	 49.032276 	 47.691214 	 C 	 1  ala 	 1.000000 
7652 	 C 	 22.837267 	 48.501363 	 47.586749 	 C 	 1  ala 	 1.000000 
7653 	 C 	 23.240423 	 49.082602 	 48.293592 	 C 	 1  ala 	 1.000000 
7654 	 C 	 23.252745 	 48.103940 	 48.498701 	 C 	 1  ala 	 1.000000 
7655 	 C 	 24.071934 	 48.315949 	 47.965801 	 C 	 1  ala 	 1.000000 
7656 	 C 	 24.106984 	 48.646440 	 48.908959 	 C 	 1  ala 	 1.000000 
7657 	 C 	 24.861296 	 47.996326 	 49.000421 	 C 	 1  ala 	 1.000000 
7658 	 C 	 25.773947 	 47.644069 	 48.793101 	 C 	 1  ala 	 1.000000 
7659 	 C 	 26.091031 	 46.819858 	 49.262286 	 C 	 1  ala 	 1.000000 
7660 	 C 	 26.690146 	 47.223405 	 48.570758 	 C 	 1  ala 	 1.000000 
7661 	 C 	 26.737227 	 47.625237 	 47.656256 	 C 	 1  ala 	 1.000000 
7662 	 C 	 27.506316 	 47.161808 	 48.096411 	 C 	 1  ala 	 1.000000 
7663 	 C 	 28.144524 	 47.253354 	 48.860812 	 C 	 1  ala 	 1.000000 
7664 	 C 	 29.112807 	 47.167039 	 48.626339 	 C 	 1  ala 	 1.000000 
7665 	 C 	 28.299266 	 47.459045 	 48.123464 	 C 	 1  ala 	 1.000000 
7666 	 C 	 27.743419 	 46.819634 	 47.592251 	 C 	 1  ala 	 1.000000 
7667 	 C 	 27.710587 	 47.077499 	 46.626628 	 C 	 1  ala 	 1.000000 
7668 	 C 	 28.168103 	 46.396459 	 47.198347 	 C 	 1  ala 	 1.000000 
7669 	 C 	 27.583861 	 47.155100 	 46.910032 	 C 	 1  ala 	 1.000000 
7670 	 C 	 26.993276 	 47.408289 	 46.143805 	 C 	 1  ala 	 1.000000 
7671 	 C 	 27.649282 	 46.717466 	 46.447812 	 C 	 1  ala 	 1.000000 
7672 	 C 	 28.044580 	 46.416180 	 47.315548 	 C 	 1  ala 	 1.000000 
7673 	 C 	 28.461310 	 46.563664 	 46.418562 	 C 	 1  ala 	 1.000000 
7674 	 C 	 28.221909 	 45.916316 	 47.142183 	 C 	 1  ala 	 1.000000 
7675 	 C 	 28.685597 	 45.362014 	 47.833372 	 C 	 1  ala 	 1.000000 
7676 	 C 	 27.919386 	 45.982640 	 47.999938 	 C 	 1  ala 	 1.000000 
7677 	 C 	 28.326727 	 46.409107 	 47.192349 	 C 	 1  ala 	 1.000000 
7678 	 C 	 29.319629 	 46.356179 	 47.298859 	 C 	 1  ala 	 1.000000 
7679 	 C 	 29.445181 	 46.739596 	 46.383857 	 C 	 1  ala 	 1.000000 
7680 	 C 	 29.648373 	 46.269826 	 45.524770 	 C 	 1  ala 	 1.000000 
7681 	 C 	 29.171746 	 47.147582 	 45.573463 	 C 	 1  ala 	 1.000000 
7682 	 C 	 28.600101 	 46.377212 	 45.855866 	 C 	 1  ala 	 1.000000 
7683 	 C 	 29.504940 	 46.597024 	 45.491244 	 C 	 1  ala 	 1.000000 
7684 	 C 	 29.139850 	 47.508342 	 45.681529 	 C 	 1  ala 	 1.000000 
7685 	 C 	 28.429990 	 46.824123 	 45.514367 	 C 	 1  ala 	 1.000000 
7686 	 C 	 28.976084 	 46.772260 	 46.350483 	 C 	 1  ala 	 1.000000 
7687 	 C 	 29.338196 	 47.499983 	 46.932973 	 C 	 1  ala 	 1.000000 
7688 	 C 	 29.795624 	 48.266219 	 46.481706 	 C 	 1  ala 	 1.000000 
7689 	 C 	 29.954653 	 48.826926 	 45.669107 	 C 	 1  ala 	 1.000000 
7690 	 C 	 29.369268 	 49.239658 	 44.971270 	 C 	 1  ala 	 1.000000 
7691 	 C 	 29.957361 	 49.727972 	 45.616014 	 C 	 1  ala 	 1.000000 
7692 	 C 	 30.941118 	 49.617078 	 45.757173 	 C 	 1  ala 	 1.000000 
7693 	 C 	 30.850658 	 50.506401 	 45.308929 	 C 	 1  ala 	 1.000000 
7694 	 C 	 31.055639 	 50.819853 	 44.381712 	 C 	 1  ala 	 1.000000 
7695 	 C 	 30.520423 	 51.038792 	 45.197562 	 C 	 1  ala 	 1.000000 
7696 	 C 	 29.874499 	 51.621121 	 45.691196 	 C 	 1  ala 	 1.000000 
7697 	 C 	 29.623383 	 52.504728 	 45.296000 	 C 	 1  ala 	 1.000000 
7698 	 C 	 30.095731 	 53.226117 	 44.789556 	 C 	 1  ala 	 1.000000 
7699 	 C 	 31.033766 	 53.530025 	 44.956077 	 C 	 1  ala 	 1.000000 
7700 	 C 	 31.900001 	 53.752617 	 45.403391 	 C 	 1  ala 	 1.000000 
7701 	 C 	 31.286313 	 54.039660 	 46.138913 	 C 	 1  ala 	 1.000000 
7702 	 C 	 30.367831 	 53.661320 	 46.023806 	 C 	 1  ala 	 1.000000 
7703 	 C 	 30.430612 	 52.749026 	 45.619111 	 C 	 1  ala 	 1.000000 
7704 	 C 	 30.716355 	 52.172639 	 46.384702 	 C 	 1  ala 	 1.000000 
7705 	 C 	 30.788531 	 51.266136 	 45.968719 	 C 	 1  ala 	 1.000000 
7706 	 C 	 31.579148 	 51.131683 	 46.566086 	 C 	 1  ala 	 1.000000 
7707 	 C 	 32.472473 	 50.997404 	 46.994969 	 C 	 1  ala 	 1.000000 
7708 	 C 	 31.632616 	 50.470061 	 46.866319 	 C 	 1  ala 	 1.000000 
7709 	 C 	 31.926730 	 50.358514 	 47.815558 	 C 	 1  ala 	 1.000000 
7710 	 C 	 31.551470 	 49.765942 	 47.102790 	 C 	 1  ala 	 1.000000 
7711 	 C 	 31.394700 	 48.983429 	 47.705366 	 C 	 1  ala 	 1.000000 
7712 	 C 	 32.070715 	 49.518815 	 48.211691 	 C 	 1  ala 	 1.000000 
7713 	 C 	 31.811693 	 50.268919 	 47.603207 	 C 	 1  ala 	 1.000000 
7714 	 C 	 32.315379 	 50.255161 	 46.739430 	 C 	 1  ala 	 1.000000 
7715 	 C 	 32.102590 	 50.904957 	 47.469146 	 C 	 1  ala 	 1.000000 
7716 	 C 	 31.278126 	 50.672305 	 47.985026 	 C 	 1  ala 	 1.000000 
7717 	 C 	 32.259830 	 50.488278 	 48.033923 	 C 	 1  ala 	 1.000000 
7718 	 C 	 33.147366 	 50.446572 	 47.575077 	 C 	 1  ala 	 1.000000 
7719 	 C 	 32.887540 	 49.970537 	 48.415244 	 C 	 1  ala 	 1.000000 
7720 	 C 	 33.144655 	 49.732166 	 47.478723 	 C 	 1  ala 	 1.000000 
7721 	 C 	 33.025614 	 50.413578 	 46.756569 	 C 	 1  ala 	 1.000000 
7722 	 C 	 32.635631 	 51.027698 	 47.442696 	 C 	 1  ala 	 1.000000 
7723 	 C 	 33.484638 	 51.512359 	 47.653150 	 C 	 1  ala 	 1.000000 
7724 	 C 	 33.152759 	 52.373800 	 48.037566 	 C 	 1  ala 	 1.000000 
7725 	 C 	 33.468678 	 51.731777 	 47.338995 	 C 	 1  ala 	 1.000000 
7726 	 C 	 33.757536 	 51.849880 	 48.289054 	 C 	 1  ala 	 1.000000 
7727 	 C 	 32.865969 	 52.298374 	 48.351990 	 C 	 1  ala 	 1.000000 
7728 	 C 	 32.576853 	 51.517053 	 48.905116 	 C 	 1  ala 	 1.000000 
7729 	 C 	 31.914668 	 52.250762 	 48.752854 	 C 	 1  ala 	 1.000000 
7730 	 C 	 32.779935 	 52.250582 	 48.251543 	 C 	 1  ala 	 1.000000 
7731 	 C 	 33.717432 	 52.395329 	 47.935081 	 C 	 1  ala 	 1.000000 
7732 	 C 	 33.460678 	 53.000758 	 47.181734 	 C 	 1  ala 	 1.000000 
7733 	 C 	 33.870581 	 52.952432 	 46.270886 	 C 	 1  ala 	 1.000000 
7734 	 C 	 33.720408 	 52.000049 	 46.536242 	 C 	 1  ala 	 1.000000 
7735 	 C 	 34.113984 	 52.131578 	 47.446076 	 C 	 1  ala 	 1.000000 
7736 	 C 	 34.059045 	 51.444484 	 46.721588 	 C 	 1  ala 	 1.000000 
7737 	 C 	 33.735674 	 50.642033 	 46.220087 	 C 	 1  ala 	 1.000000 
7738 	 C 	 33.150114 	 50.887748 	 46.992579 	 C 	 1  ala 	 1.000000 
7739 	 C 	 33.697388 	 51.267615 	 47.738362 	 C 	 1  ala 	 1.000000 
7740 	 C 	 34.136036 	 52.069939 	 48.143163 	 C 	 1  ala 	 1.000000 
7741 	 C 	 35.000362 	 52.043146 	 48.645380 	 C 	 1  ala 	 1.000000 
7742 	 C 	 34.731941 	 51.259149 	 49.205112 	 C 	 1  ala 	 1.000000 
7743 	 C 	 34.583676 	 50.280944 	 49.059748 	 C 	 1  ala 	 1.000000 
7744 	 C 	 33.594065 	 50.211008 	 49.185363 	 C 	 1  ala 	 1.000000 
7745 	 C 	 32.677154 	 50.276658 	 49.579016 	 C 	 1  ala 	 1.000000 
7746 	 C 	 33.131465 	 49.902842 	 48.770399 	 C 	 1  ala 	 1.000000 
7747 	 C 	 33.179022 	 48.945054 	 49.053914 	 C 	 1  ala 	 1.000000 
7748 	 C 	 33.011714 	 49.575809 	 48.296184 	 C 	 1  ala 	 1.000000 
7749 	 C 	 32.586421 	 49.789441 	 49.175666 	 C 	 1  ala 	 1.000000 
7750 	 C 	 32.737391 	 50.763372 	 49.344974 	 C 	 1  ala 	 1.000000 
7751 	 C 	 33.454467 	 51.006402 	 48.691722 	 C 	 1  ala 	 1.000000 
7752 	 C 	 33.237737 	 50.715122 	 49.623486 	 C 	 1  ala 	 1.000000 
7753 	 C 	 34.095458 	 51.184857 	 49.832443 	 C 	 1  ala 	 1.000000 
7754 	 C 	 34.047493 	 50.198586 	 49.990454 	 C 	 1  ala 	 1.000000 
7755 	 C 	 33.909521 	 50.941307 	 49.335222 	 C 	 1  ala 	 1.000000 
7756 	 C 	 34.531030 	 50.159849 	 49.390444 	 C 	 1  ala 	 1.000000 
7757 	 C 	 33.567920 	 50.091741 	 49.650790 	 C 	 1  ala 	 1.000000 
7758 	 C 	 34.448280 	 49.662765 	 49.853141 	 C 	 1  ala 	 1.000000 
7759 	 C 	 34.307923 	 50.459436 	 49.265250 	 C 	 1  ala 	 1.000000 
7760 	 C 	 34.394395 	 49.529511 	 48.907811 	 C 	 1  ala 	 1.000000 
7761 	 C 	 34.682332 	 49.716238 	 49.847080 	 C 	 1  ala 	 1.000000 
7762 	 C 	 33.917017 	 49.275319 	 50.315998 	 C 	 1  ala 	 1.000000 
7763 	 C 	 33.181255 	 49.757005 	 50.792057 	 C 	 1  ala 	 1.000000 
7764 	 C 	 33.759758 	 48.941490 	 50.775634 	 C 	 1  ala 	 1.000000 
7765 	 C 	 33.500012 	 49.806701 	 51.204517 	 C 	 1  ala 	 1.000000 
7766 	 C 	 32.593583 	 49.498711 	 51.493533 	 C 	 1  ala 	 1.000000 
7767 	 C 	 32.726877 	 49.752313 	 50.535452 	 C 	 1  ala 	 1.000000 
7768 	 C 	 33.214111 	 50.538103 	 50.916422 	 C 	 1  ala 	 1.000000 
7769 	 C 	 32.821379 	 49.856393 	 51.533702 	 C 	 1  ala 	 1.000000 
7770 	 C 	 32.954736 	 49.042871 	 50.967666 	 C 	 1  ala 	 1.000000 
7771 	 C 	 32.126864 	 48.603898 	 51.316853 	 C 	 1  ala 	 1.000000 
7772 	 C 	 31.673830 	 49.003330 	 50.519850 	 C 	 1  ala 	 1.000000 
7773 	 C 	 31.555174 	 48.011001 	 50.554540 	 C 	 1  ala 	 1.000000 
7774 	 C 	 32.066834 	 48.864292 	 50.454058 	 C 	 1  ala 	 1.000000 
7775 	 C 	 32.220900 	 47.895260 	 50.647035 	 C 	 1  ala 	 1.000000 
7776 	 C 	 32.367426 	 47.237140 	 51.385552 	 C 	 1  ala 	 1.000000 
7777 	 C 	 32.859553 	 48.095951 	 51.527871 	 C 	 1  ala 	 1.000000 
7778 	 C 	 33.085407 	 47.206802 	 51.925870 	 C 	 1  ala 	 1.000000 
7779 	 C 	 33.662814 	 47.248619 	 51.110485 	 C 	 1  ala 	 1.000000 
7780 	 C 	 33.877309 	 46.521079 	 50.458813 	 C 	 1  ala 	 1.000000 
7781 	 C 	 34.833429 	 46.412374 	 50.186749 	 C 	 1  ala 	 1.000000 
7782 	 C 	 35.685734 	 46.885455 	 49.963659 	 C 	 1  ala 	 1.000000 
7783 	 C 	 34.796795 	 46.438923 	 49.861695 	 C 	 1  ala 	 1.000000 
7784 	 C 	 34.221713 	 46.771730 	 49.114353 	 C 	 1  ala 	 1.000000 
7785 	 C 	 33.862444 	 47.673712 	 49.353841 	 C 	 1  ala 	 1.000000 
7786 	 C 	 34.520270 	 47.174149 	 49.917492 	 C 	 1  ala 	 1.000000 
7787 	 C 	 33.531278 	 47.212469 	 49.774568 	 C 	 1  ala 	 1.000000 
7788 	 C 	 34.023643 	 48.051179 	 49.541885 	 C 	 1  ala 	 1.000000 
7789 	 C 	 34.931492 	 48.381535 	 49.800103 	 C 	 1  ala 	 1.000000 
7790 	 C 	 35.499627 	 47.977370 	 50.516952 	 C 	 1  ala 	 1.000000 
7791 	 C 	 34.955802 	 48.476298 	 51.191730 	 C 	 1  ala 	 1.000000 
7792 	 C 	 35.467900 	 47.751909 	 50.730194 	 C 	 1  ala 	 1.000000 
7793 	 C 	 35.388256 	 48.611062 	 51.235678 	 C 	 1  ala 	 1.000000 
7794 	 C 	 36.186273 	 48.722361 	 50.643410 	 C 	 1  ala 	 1.000000 
7795 	 C 	 36.815830 	 48.451708 	 51.371699 	 C 	 1  ala 	 1.000000 
7796 	 C 	 36.473654 	 48.417460 	 52.310711 	 C 	 1  ala 	 1.000000 
7797 	 C 	 36.122611 	 48.001103 	 51.472012 	 C 	 1  ala 	 1.000000 
7798 	 C 	 35.604805 	 47.391761 	 52.072495 	 C 	 1  ala 	 1.000000 
7799 	 C 	 36.256273 	 48.139983 	 52.198012 	 C 	 1  ala 	 1.000000 
7800 	 C 	 36.962410 	 48.660147 	 52.678429 	 C 	 1  ala 	 1.000000 
7801 	 C 	 36.671031 	 48.156379 	 51.865215 	 C 	 1  ala 	 1.000000 
7802 	 C 	 36.826005 	 48.087050 	 52.850698 	 C 	 1  ala 	 1.000000 
7803 	 C 	 36.387061 	 47.537674 	 52.139702 	 C 	 1  ala 	 1.000000 
7804 	 C 	 37.100307 	 47.341926 	 52.812727 	 C 	 1  ala 	 1.000000 
7805 	 C 	 36.884516 	 46.901180 	 51.941419 	 C 	 1  ala 	 1.000000 
7806 	 C 	 36.576878 	 47.024023 	 50.997878 	 C 	 1  ala 	 1.000000 
7807 	 C 	 35.892735 	 46.945539 	 51.722991 	 C 	 1  ala 	 1.000000 
7808 	 C 	 36.354571 	 46.680864 	 52.569546 	 C 	 1  ala 	 1.000000 
7809 	 C 	 36.808872 	 46.153134 	 51.851834 	 C 	 1  ala 	 1.000000 
7810 	 C 	 37.554459 	 45.486954 	 51.869287 	 C 	 1  ala 	 1.000000 
7811 	 C 	 38.317590 	 46.027466 	 52.223515 	 C 	 1  ala 	 1.000000 
7812 	 C 	 37.988062 	 46.447207 	 51.377803 	 C 	 1  ala 	 1.000000 
7813 	 C 	 37.733924 	 47.407477 	 51.262496 	 C 	 1  ala 	 1.000000 
7814 	 C 	 37.397653 	 46.700241 	 51.884380 	 C 	 1  ala 	 1.000000 
7815 	 C 	 36.507994 	 46.417680 	 51.525681 	 C 	 1  ala 	 1.000000 
7816 	 C 	 35.985111 	 46.653488 	 52.344819 	 C 	 1  ala 	 1.000000 
7817 	 C 	 36.435066 	 46.077500 	 51.662340 	 C 	 1  ala 	 1.000000 
7818 	 C 	 36.506293 	 45.564198 	 52.517587 	 C 	 1  ala 	 1.000000 
7819 	 C 	 37.336318 	 46.121761 	 52.504141 	 C 	 1  ala 	 1.000000 
7820 	 C 	 37.725107 	 46.543824 	 53.323108 	 C 	 1  ala 	 1.000000 
7821 	 C 	 37.650002 	 47.180307 	 52.555483 	 C 	 1  ala 	 1.000000 
7822 	 C 	 37.721940 	 47.919990 	 53.224581 	 C 	 1  ala 	 1.000000 
7823 	 C 	 37.123823 	 47.187421 	 53.549540 	 C 	 1  ala 	 1.000000 
7824 	 C 	 37.405479 	 46.573446 	 54.286903 	 C 	 1  ala 	 1.000000 
7825 	 C 	 38.226655 	 47.143742 	 54.266123 	 C 	 1  ala 	 1.000000 
7826 	 C 	 38.702589 	 46.264489 	 54.246079 	 C 	 1  ala 	 1.000000 
7827 	 C 	 38.764010 	 45.296669 	 54.002048 	 C 	 1  ala 	 1.000000 
7828 	 C 	 38.122264 	 44.589375 	 54.298524 	 C 	 1  ala 	 1.000000 
7829 	 C 	 37.176513 	 44.843987 	 54.500335 	 C 	 1  ala 	 1.000000 
7830 	 C 	 37.023573 	 43.935109 	 54.112324 	 C 	 1  ala 	 1.000000 
7831 	 C 	 37.437222 	 44.682459 	 54.632289 	 C 	 1  ala 	 1.000000 
7832 	 C 	 37.894140 	 44.456344 	 53.771999 	 C 	 1  ala 	 1.000000 
7833 	 C 	 38.705913 	 43.994427 	 53.414709 	 C 	 1  ala 	 1.000000 
7834 	 C 	 38.317699 	 44.656046 	 54.056230 	 C 	 1  ala 	 1.000000 
7835 	 C 	 38.843866 	 43.821492 	 53.892931 	 C 	 1  ala 	 1.000000 
7836 	 C 	 39.408368 	 44.488614 	 53.406839 	 C 	 1  ala 	 1.000000 
7837 	 C 	 38.903600 	 43.707875 	 53.775154 	 C 	 1  ala 	 1.000000 
7838 	 C 	 39.529497 	 43.082588 	 53.309032 	 C 	 1  ala 	 1.000000 
7839 	 C 	 39.269871 	 42.430940 	 52.596326 	 C 	 1  ala 	 1.000000 
7840 	 C 	 38.868399 	 43.285362 	 52.926149 	 C 	 1  ala 	 1.000000 
7841 	 C 	 37.955252 	 43.247759 	 53.332041 	 C 	 1  ala 	 1.000000 
7842 	 C 	 38.641087 	 43.613161 	 53.961415 	 C 	 1  ala 	 1.000000 
7843 	 C 	 38.068290 	 42.977621 	 53.443734 	 C 	 1  ala 	 1.000000 
7844 	 C 	 38.257862 	 43.269296 	 52.506190 	 C 	 1  ala 	 1.000000 
7845 	 C 	 38.888500 	 42.550502 	 52.798819 	 C 	 1  ala 	 1.000000 
7846 	 C 	 38.106502 	 42.131540 	 53.260285 	 C 	 1  ala 	 1.000000 
7847 	 C 	 38.642202 	 41.289391 	 53.198555 	 C 	 1  ala 	 1.000000 
7848 	 C 	 38.537082 	 40.300117 	 53.097136 	 C 	 1  ala 	 1.000000 
7849 	 C 	 38.251770 	 39.342048 	 53.123599 	 C 	 1  ala 	 1.000000 
7850 	 C 	 39.102312 	 39.832966 	 52.934978 	 C 	 1  ala 	 1.000000 
7851 	 C 	 39.153776 	 38.852114 	 52.747146 	 C 	 1  ala 	 1.000000 
7852 	 C 	 39.406652 	 39.482771 	 53.480853 	 C 	 1  ala 	 1.000000 
7853 	 C 	 40.033992 	 38.935802 	 52.926534 	 C 	 1  ala 	 1.000000 
7854 	 C 	 39.240620 	 38.879765 	 53.532687 	 C 	 1  ala 	 1.000000 
7855 	 C 	 39.728037 	 39.732960 	 53.718386 	 C 	 1  ala 	 1.000000 
7856 	 C 	 40.227837 	 39.530948 	 52.876133 	 C 	 1  ala 	 1.000000 
7857 	 C 	 39.846606 	 39.072041 	 52.073594 	 C 	 1  ala 	 1.000000 
7858 	 C 	 38.869474 	 38.930129 	 52.231937 	 C 	 1  ala 	 1.000000 
7859 	 C 	 38.675580 	 38.110985 	 52.771760 	 C 	 1  ala 	 1.000000 
7860 	 C 	 39.032597 	 38.984414 	 53.102909 	 C 	 1  ala 	 1.000000 
7861 	 C 	 38.697725 	 39.909002 	 53.284563 	 C 	 1  ala 	 1.000000 
7862 	 C 	 38.210656 	 39.386356 	 53.984281 	 C 	 1  ala 	 1.000000 
7863 	 C 	 38.933391 	 39.765529 	 53.406455 	 C 	 1  ala 	 1.000000 
7864 	 C 	 39.654823 	 39.252489 	 53.871563 	 C 	 1  ala 	 1.000000 
7865 	 C 	 38.730037 	 39.552506 	 53.637555 	 C 	 1  ala 	 1.000000 
7866 	 C 	 37.852722 	 39.115689 	 53.438783 	 C 	 1  ala 	 1.000000 
7867 	 C 	 38.161598 	 38.218344 	 53.754008 	 C 	 1  ala 	 1.000000 
7868 	 C 	 39.115420 	 38.004766 	 53.542803 	 C 	 1  ala 	 1.000000 
7869 	 C 	 39.346215 	 38.977689 	 53.555196 	 C 	 1  ala 	 1.000000 
7870 	 C 	 39.947503 	 39.774796 	 53.610641 	 C 	 1  ala 	 1.000000 
7871 	 C 	 39.728869 	 39.037130 	 52.971855 	 C 	 1  ala 	 1.000000 
7872 	 C 	 40.240220 	 39.861965 	 53.213032 	 C 	 1  ala 	 1.000000 
7873 	 C 	 40.326341 	 40.501819 	 52.449375 	 C 	 1  ala 	 1.000000 
7874 	 C 	 40.389912 	 39.505635 	 52.389562 	 C 	 1  ala 	 1.000000 
7875 	 C 	 40.229557 	 38.638457 	 52.861036 	 C 	 1  ala 	 1.000000 
7876 	 C 	 40.809192 	 39.436702 	 52.697244 	 C 	 1  ala 	 1.000000 
7877 	 C 	 41.018482 	 40.081624 	 51.962211 	 C 	 1  ala 	 1.000000 
7878 	 C 	 40.407823 	 40.569639 	 52.585859 	 C 	 1  ala 	 1.000000 
7879 	 C 	 40.642868 	 41.022952 	 51.726055 	 C 	 1  ala 	 1.000000 
7880 	 C 	 41.156810 	 40.278745 	 52.152695 	 C 	 1  ala 	 1.000000 
7881 	 C 	 41.547950 	 40.244863 	 51.232987 	 C 	 1  ala 	 1.000000 
7882 	 C 	 40.768102 	 40.354874 	 51.849214 	 C 	 1  ala 	 1.000000 
7883 	 C 	 41.295143 	 40.877288 	 51.178907 	 C 	 1  ala 	 1.000000 
7884 	 C 	 41.253671 	 41.850261 	 51.406072 	 C 	 1  ala 	 1.000000 
7885 	 C 	 42.214455 	 41.574524 	 51.435433 	 C 	 1  ala 	 1.000000 
7886 	 C 	 41.945861 	 41.995608 	 52.301773 	 C 	 1  ala 	 1.000000 
7887 	 C 	 42.744815 	 41.451640 	 52.045311 	 C 	 1  ala 	 1.000000 
7888 	 C 	 43.167793 	 41.421410 	 52.950946 	 C 	 1  ala 	 1.000000 
7889 	 C 	 43.730770 	 41.133341 	 53.725590 	 C 	 1  ala 	 1.000000 
7890 	 C 	 44.425231 	 40.455214 	 53.485036 	 C 	 1  ala 	 1.000000 
7891 	 C 	 44.974374 	 40.150590 	 52.706803 	 C 	 1  ala 	 1.000000 
7892 	 C 	 45.323836 	 39.224312 	 52.847819 	 C 	 1  ala 	 1.000000 
7893 	 C 	 45.571747 	 40.103526 	 53.254665 	 C 	 1  ala 	 1.000000 
7894 	 C 	 46.164424 	 40.893455 	 53.097356 	 C 	 1  ala 	 1.000000 
7895 	 C 	 46.438758 	 39.992543 	 53.433657 	 C 	 1  ala 	 1.000000 
7896 	 C 	 47.422507 	 39.905603 	 53.590754 	 C 	 1  ala 	 1.000000 
7897 	 C 	 47.118532 	 39.098863 	 53.084030 	 C 	 1  ala 	 1.000000 
7898 	 C 	 47.256525 	 38.662513 	 53.973162 	 C 	 1  ala 	 1.000000 
7899 	 C 	 48.074184 	 38.297767 	 54.418578 	 C 	 1  ala 	 1.000000 
7900 	 C 	 47.651815 	 38.510187 	 53.537395 	 C 	 1  ala 	 1.000000 
7901 	 C 	 47.292881 	 38.408759 	 54.465231 	 C 	 1  ala 	 1.000000 
7902 	 C 	 46.396014 	 38.821636 	 54.623858 	 C 	 1  ala 	 1.000000 
7903 	 C 	 46.666324 	 37.959980 	 54.194346 	 C 	 1  ala 	 1.000000 
7904 	 C 	 47.364213 	 38.605617 	 53.884341 	 C 	 1  ala 	 1.000000 
7905 	 C 	 46.480302 	 38.789269 	 54.314426 	 C 	 1  ala 	 1.000000 
7906 	 C 	 46.970959 	 38.969036 	 55.167034 	 C 	 1  ala 	 1.000000 
7907 	 C 	 47.456077 	 38.184800 	 54.780207 	 C 	 1  ala 	 1.000000 
7908 	 C 	 48.092144 	 38.188796 	 55.551830 	 C 	 1  ala 	 1.000000 
7909 	 C 	 48.166091 	 37.596558 	 54.749467 	 C 	 1  ala 	 1.000000 
7910 	 C 	 47.907052 	 36.912223 	 55.431071 	 C 	 1  ala 	 1.000000 
7911 	 C 	 48.630191 	 36.624313 	 54.803235 	 C 	 1  ala 	 1.000000 
7912 	 C 	 47.792592 	 37.166417 	 54.870689 	 C 	 1  ala 	 1.000000 
7913 	 C 	 47.573777 	 37.952793 	 54.292993 	 C 	 1  ala 	 1.000000 
7914 	 C 	 46.974586 	 38.624435 	 54.728732 	 C 	 1  ala 	 1.000000 
7915 	 C 	 46.065266 	 38.946092 	 54.992690 	 C 	 1  ala 	 1.000000 
7916 	 C 	 45.420811 	 38.201429 	 55.166340 	 C 	 1  ala 	 1.000000 
7917 	 C 	 45.835031 	 38.028652 	 54.272713 	 C 	 1  ala 	 1.000000 
7918 	 C 	 45.221346 	 38.338942 	 54.998737 	 C 	 1  ala 	 1.000000 
7919 	 C 	 44.429138 	 38.946121 	 55.059893 	 C 	 1  ala 	 1.000000 
7920 	 C 	 45.372038 	 38.626769 	 55.154520 	 C 	 1  ala 	 1.000000 
7921 	 C 	 45.254175 	 39.338482 	 54.462007 	 C 	 1  ala 	 1.000000 
7922 	 C 	 44.470235 	 39.088063 	 55.030099 	 C 	 1  ala 	 1.000000 
7923 	 C 	 44.287639 	 38.495977 	 55.815016 	 C 	 1  ala 	 1.000000 
7924 	 C 	 43.781064 	 37.675220 	 56.079097 	 C 	 1  ala 	 1.000000 
7925 	 C 	 44.030330 	 38.189719 	 56.899558 	 C 	 1  ala 	 1.000000 
7926 	 C 	 44.879127 	 38.706424 	 57.011628 	 C 	 1  ala 	 1.000000 
7927 	 C 	 44.824547 	 38.366204 	 56.072867 	 C 	 1  ala 	 1.000000 
7928 	 C 	 45.356107 	 37.749674 	 55.492061 	 C 	 1  ala 	 1.000000 
7929 	 C 	 45.910406 	 38.410405 	 55.998211 	 C 	 1  ala 	 1.000000 
7930 	 C 	 45.591837 	 39.343205 	 55.829690 	 C 	 1  ala 	 1.000000 
7931 	 C 	 45.760994 	 40.327893 	 55.871832 	 C 	 1  ala 	 1.000000 
7932 	 C 	 45.018633 	 40.924285 	 56.177148 	 C 	 1  ala 	 1.000000 
7933 	 C 	 44.800760 	 40.926036 	 57.153123 	 C 	 1  ala 	 1.000000 
7934 	 C 	 44.996126 	 40.529312 	 58.050030 	 C 	 1  ala 	 1.000000 
7935 	 C 	 44.279288 	 39.907794 	 57.734027 	 C 	 1  ala 	 1.000000 
7936 	 C 	 43.821469 	 39.570027 	 58.556410 	 C 	 1  ala 	 1.000000 
7937 	 C 	 43.926962 	 38.608428 	 58.303037 	 C 	 1  ala 	 1.000000 
7938 	 C 	 44.712256 	 38.461907 	 58.904573 	 C 	 1  ala 	 1.000000 
7939 	 C 	 44.830591 	 39.454587 	 58.928724 	 C 	 1  ala 	 1.000000 
7940 	 C 	 44.961581 	 40.251435 	 58.338914 	 C 	 1  ala 	 1.000000 
7941 	 C 	 44.226540 	 40.916141 	 58.472634 	 C 	 1  ala 	 1.000000 
7942 	 C 	 43.293892 	 40.940786 	 58.832580 	 C 	 1  ala 	 1.000000 
7943 	 C 	 43.970845 	 40.341226 	 58.405658 	 C 	 1  ala 	 1.000000 
7944 	 C 	 44.083005 	 39.351355 	 58.492691 	 C 	 1  ala 	 1.000000 
7945 	 C 	 43.248325 	 39.593302 	 58.987434 	 C 	 1  ala 	 1.000000 
7946 	 C 	 42.482436 	 39.997681 	 59.487327 	 C 	 1  ala 	 1.000000 
7947 	 C 	 43.408346 	 40.326280 	 59.301011 	 C 	 1  ala 	 1.000000 
7948 	 C 	 42.621758 	 40.449866 	 58.696026 	 C 	 1  ala 	 1.000000 
7949 	 C 	 42.311007 	 41.294676 	 59.131605 	 C 	 1  ala 	 1.000000 
7950 	 C 	 42.882733 	 40.485444 	 59.266780 	 C 	 1  ala 	 1.000000 
7951 	 C 	 42.935911 	 40.621834 	 58.277553 	 C 	 1  ala 	 1.000000 
7952 	 C 	 43.372870 	 40.692221 	 57.380830 	 C 	 1  ala 	 1.000000 
7953 	 C 	 43.248783 	 39.817199 	 56.912922 	 C 	 1  ala 	 1.000000 
7954 	 C 	 43.620392 	 40.504572 	 56.288882 	 C 	 1  ala 	 1.000000 
7955 	 C 	 42.706405 	 40.810595 	 56.555301 	 C 	 1  ala 	 1.000000 
7956 	 C 	 42.334177 	 40.440257 	 55.704245 	 C 	 1  ala 	 1.000000 
7957 	 C 	 41.674357 	 40.033358 	 55.072524 	 C 	 1  ala 	 1.000000 
7958 	 C 	 42.537225 	 39.796365 	 54.626100 	 C 	 1  ala 	 1.000000 
7959 	 C 	 41.925221 	 40.469313 	 55.041543 	 C 	 1  ala 	 1.000000 
7960 	 C 	 42.521111 	 39.685215 	 54.868035 	 C 	 1  ala 	 1.000000 
7961 	 C 	 41.752141 	 40.071632 	 55.377316 	 C 	 1  ala 	 1.000000 
7962 	 C 	 40.787473 	 40.125034 	 55.635317 	 C 	 1  ala 	 1.000000 
7963 	 C 	 39.869214 	 40.520907 	 55.626166 	 C 	 1  ala 	 1.000000 
7964 	 C 	 39.073590 	 40.848387 	 56.135813 	 C 	 1  ala 	 1.000000 
7965 	 C 	 38.871794 	 41.797978 	 55.895907 	 C 	 1  ala 	 1.000000 
7966 	 C 	 38.629704 	 42.768182 	 55.886012 	 C 	 1  ala 	 1.000000 
7967 	 C 	 38.277287 	 41.837237 	 55.790387 	 C 	 1  ala 	 1.000000 
7968 	 C 	 37.607590 	 42.519271 	 56.084215 	 C 	 1  ala 	 1.000000 
7969 	 C 	 36.844351 	 41.961437 	 55.758197 	 C 	 1  ala 	 1.000000 
7970 	 C 	 36.367309 	 41.515588 	 56.515593 	 C 	 1  ala 	 1.000000 
7971 	 C 	 36.336391 	 42.489976 	 56.738332 	 C 	 1  ala 	 1.000000 
7972 	 C 	 37.270035 	 42.815249 	 56.588312 	 C 	 1  ala 	 1.000000 
7973 	 C 	 37.569277 	 42.551531 	 57.505322 	 C 	 1  ala 	 1.000000 
7974 	 C 	 37.410112 	 41.591836 	 57.273694 	 C 	 1  ala 	 1.000000 
7975 	 C 	 36.715937 	 42.187411 	 57.677936 	 C 	 1  ala 	 1.000000 
7976 	 C 	 37.613052 	 41.769760 	 57.821992 	 C 	 1  ala 	 1.000000 
7977 	 C 	 37.333008 	 41.712055 	 56.863741 	 C 	 1  ala 	 1.000000 
7978 	 C 	 37.245779 	 41.377363 	 57.802023 	 C 	 1  ala 	 1.000000 
7979 	 C 	 36.606486 	 40.838509 	 57.253443 	 C 	 1  ala 	 1.000000 
7980 	 C 	 37.025346 	 39.997530 	 57.595949 	 C 	 1  ala 	 1.000000 
7981 	 C 	 37.797838 	 39.571093 	 58.066489 	 C 	 1  ala 	 1.000000 
7982 	 C 	 38.536489 	 39.011309 	 57.690941 	 C 	 1  ala 	 1.000000 
7983 	 C 	 37.689174 	 39.193451 	 57.192060 	 C 	 1  ala 	 1.000000 
7984 	 C 	 36.774810 	 38.949588 	 56.868840 	 C 	 1  ala 	 1.000000 
7985 	 C 	 36.883890 	 38.555849 	 55.956113 	 C 	 1  ala 	 1.000000 
7986 	 C 	 36.895893 	 37.556507 	 55.921887 	 C 	 1  ala 	 1.000000 
7987 	 C 	 36.257243 	 37.996930 	 55.290893 	 C 	 1  ala 	 1.000000 
7988 	 C 	 35.297999 	 38.275265 	 55.242091 	 C 	 1  ala 	 1.000000 
7989 	 C 	 34.358624 	 38.050268 	 54.983342 	 C 	 1  ala 	 1.000000 
7990 	 C 	 35.118041 	 37.755360 	 54.403415 	 C 	 1  ala 	 1.000000 
7991 	 C 	 34.686736 	 38.510202 	 53.909260 	 C 	 1  ala 	 1.000000 
7992 	 C 	 35.003509 	 38.969611 	 54.739078 	 C 	 1  ala 	 1.000000 
7993 	 C 	 35.321957 	 39.822579 	 55.152643 	 C 	 1  ala 	 1.000000 
7994 	 C 	 35.405760 	 40.780695 	 55.426489 	 C 	 1  ala 	 1.000000 
7995 	 C 	 35.103479 	 40.790317 	 54.473319 	 C 	 1  ala 	 1.000000 
7996 	 C 	 35.124416 	 41.390223 	 55.273116 	 C 	 1  ala 	 1.000000 
7997 	 C 	 34.136082 	 41.237921 	 55.272380 	 C 	 1  ala 	 1.000000 
7998 	 C 	 33.939504 	 42.213731 	 55.368054 	 C 	 1  ala 	 1.000000 
7999 	 C 	 34.733202 	 42.775088 	 55.133700 	 C 	 1  ala 	 1.000000 
8000 	 C 	 34.054037 	 42.045758 	 55.051160 	 C 	 1  ala 	 1.000000 
8001 	 C 	 33.775559 	 43.005821 	 55.078144 	 C 	 1  ala 	 1.000000 
8002 	 C 	 34.431897 	 42.327616 	 55.408686 	 C 	 1  ala 	 1.000000 
8003 	 C 	 33.546282 	 42.589534 	 55.025170 	 C 	 1  ala 	 1.000000 
8004 	 C 	 34.439066 	 42.919046 	 55.332347 	 C 	 1  ala 	 1.000000 
8005 	 C 	 35.160664 	 43.329051 	 54.774500 	 C 	 1  ala 	 1.000000 
8006 	 C 	 34.194778 	 43.509133 	 54.588395 	 C 	 1  ala 	 1.000000 
8007 	 C 	 34.596689 	 42.612656 	 54.401857 	 C 	 1  ala 	 1.000000 
8008 	 C 	 34.285671 	 43.211612 	 55.139772 	 C 	 1  ala 	 1.000000 
8009 	 C 	 34.473343 	 42.472836 	 54.492478 	 C 	 1  ala 	 1.000000 
8010 	 C 	 34.021809 	 43.329756 	 54.243870 	 C 	 1  ala 	 1.000000 
8011 	 C 	 34.355799 	 43.527755 	 55.165416 	 C 	 1  ala 	 1.000000 
8012 	 C 	 33.910569 	 44.053269 	 55.890402 	 C 	 1  ala 	 1.000000 
8013 	 C 	 33.845842 	 43.759988 	 54.936570 	 C 	 1  ala 	 1.000000 
8014 	 C 	 33.155699 	 43.102064 	 54.635175 	 C 	 1  ala 	 1.000000 
8015 	 C 	 33.864163 	 43.146677 	 55.339510 	 C 	 1  ala 	 1.000000 
8016 	 C 	 34.060364 	 43.247201 	 56.314908 	 C 	 1  ala 	 1.000000 
8017 	 C 	 33.875489 	 44.188960 	 56.595816 	 C 	 1  ala 	 1.000000 
8018 	 C 	 33.461034 	 43.518557 	 57.211273 	 C 	 1  ala 	 1.000000 
8019 	 C 	 34.027178 	 44.182778 	 57.699425 	 C 	 1  ala 	 1.000000 
8020 	 C 	 34.085854 	 45.168240 	 57.539986 	 C 	 1  ala 	 1.000000 
8021 	 C 	 34.675838 	 45.042488 	 56.742424 	 C 	 1  ala 	 1.000000 
8022 	 C 	 33.706385 	 45.062588 	 56.986874 	 C 	 1  ala 	 1.000000 
8023 	 C 	 33.928358 	 45.980312 	 57.316286 	 C 	 1  ala 	 1.000000 
8024 	 C 	 33.099394 	 46.141049 	 56.780578 	 C 	 1  ala 	 1.000000 
8025 	 C 	 33.249085 	 46.723996 	 55.981976 	 C 	 1  ala 	 1.000000 
8026 	 C 	 32.459100 	 46.430419 	 56.520247 	 C 	 1  ala 	 1.000000 
8027 	 C 	 32.423864 	 45.853406 	 55.704273 	 C 	 1  ala 	 1.000000 
8028 	 C 	 33.080946 	 45.871224 	 56.457881 	 C 	 1  ala 	 1.000000 
8029 	 C 	 32.230930 	 45.515528 	 56.846409 	 C 	 1  ala 	 1.000000 
8030 	 C 	 32.904560 	 46.180752 	 57.168435 	 C 	 1  ala 	 1.000000 
8031 	 C 	 32.969509 	 46.347266 	 56.184538 	 C 	 1  ala 	 1.000000 
8032 	 C 	 32.143518 	 45.809231 	 56.352634 	 C 	 1  ala 	 1.000000 
8033 	 C 	 32.846825 	 45.484078 	 55.720468 	 C 	 1  ala 	 1.000000 
8034 	 C 	 31.922269 	 45.513989 	 56.100338 	 C 	 1  ala 	 1.000000 
8035 	 C 	 32.347003 	 45.096644 	 55.296955 	 C 	 1  ala 	 1.000000 
8036 	 C 	 33.315940 	 45.100341 	 55.544235 	 C 	 1  ala 	 1.000000 
8037 	 C 	 33.697618 	 44.199387 	 55.750641 	 C 	 1  ala 	 1.000000 
8038 	 C 	 33.085862 	 43.625277 	 55.206444 	 C 	 1  ala 	 1.000000 
8039 	 C 	 33.470482 	 44.220614 	 54.501007 	 C 	 1  ala 	 1.000000 
8040 	 C 	 34.020975 	 44.067630 	 55.321710 	 C 	 1  ala 	 1.000000 
8041 	 C 	 34.216554 	 44.130511 	 56.300380 	 C 	 1  ala 	 1.000000 
8042 	 C 	 33.454461 	 43.673348 	 56.758871 	 C 	 1  ala 	 1.000000 
8043 	 C 	 33.239501 	 43.181636 	 57.602679 	 C 	 1  ala 	 1.000000 
8044 	 C 	 32.617260 	 43.358978 	 58.365152 	 C 	 1  ala 	 1.000000 
8045 	 C 	 32.449831 	 44.035927 	 57.648419 	 C 	 1  ala 	 1.000000 
8046 	 C 	 32.131804 	 43.087943 	 57.662025 	 C 	 1  ala 	 1.000000 
8047 	 C 	 31.805816 	 42.478809 	 56.939053 	 C 	 1  ala 	 1.000000 
8048 	 C 	 31.718747 	 41.483871 	 56.888890 	 C 	 1  ala 	 1.000000 
8049 	 C 	 30.988243 	 40.858521 	 57.163304 	 C 	 1  ala 	 1.000000 
8050 	 C 	 30.588165 	 41.673399 	 57.582723 	 C 	 1  ala 	 1.000000 
8051 	 C 	 31.102245 	 41.066366 	 58.188719 	 C 	 1  ala 	 1.000000 
8052 	 C 	 31.687668 	 40.636123 	 57.501572 	 C 	 1  ala 	 1.000000 
8053 	 C 	 30.896658 	 40.941475 	 56.971418 	 C 	 1  ala 	 1.000000 
8054 	 C 	 30.679165 	 40.491106 	 56.105471 	 C 	 1  ala 	 1.000000 
8055 	 C 	 30.663005 	 39.637836 	 56.626690 	 C 	 1  ala 	 1.000000 
8056 	 C 	 29.712215 	 39.631510 	 56.936463 	 C 	 1  ala 	 1.000000 
8057 	 C 	 28.816967 	 40.065904 	 56.837306 	 C 	 1  ala 	 1.000000 
8058 	 C 	 28.456083 	 39.233343 	 57.257552 	 C 	 1  ala 	 1.000000 
8059 	 C 	 28.766290 	 39.067403 	 58.193626 	 C 	 1  ala 	 1.000000 
8060 	 C 	 29.762321 	 38.994957 	 58.141914 	 C 	 1  ala 	 1.000000 
8061 	 C 	 30.120834 	 38.807132 	 57.227480 	 C 	 1  ala 	 1.000000 
8062 	 C 	 30.872388 	 38.861911 	 56.570086 	 C 	 1  ala 	 1.000000 
8063 	 C 	 29.918394 	 38.963344 	 56.287938 	 C 	 1  ala 	 1.000000 
8064 	 C 	 30.382083 	 38.745782 	 57.146810 	 C 	 1  ala 	 1.000000 
8065 	 C 	 30.235595 	 38.540024 	 56.179233 	 C 	 1  ala 	 1.000000 
8066 	 C 	 29.848644 	 37.629975 	 56.327826 	 C 	 1  ala 	 1.000000 
8067 	 C 	 30.388097 	 36.894351 	 55.918136 	 C 	 1  ala 	 1.000000 
8068 	 C 	 29.578885 	 36.754403 	 55.347530 	 C 	 1  ala 	 1.000000 
8069 	 C 	 29.268047 	 37.368111 	 54.621760 	 C 	 1  ala 	 1.000000 
8070 	 C 	 29.318094 	 36.786602 	 53.809760 	 C 	 1  ala 	 1.000000 
8071 	 C 	 28.411791 	 37.025929 	 53.461424 	 C 	 1  ala 	 1.000000 
8072 	 C 	 28.590721 	 36.998756 	 52.477938 	 C 	 1  ala 	 1.000000 
8073 	 C 	 28.576646 	 37.251928 	 53.445257 	 C 	 1  ala 	 1.000000 
8074 	 C 	 29.156935 	 38.012331 	 53.153622 	 C 	 1  ala 	 1.000000 
8075 	 C 	 29.960895 	 37.759380 	 52.615418 	 C 	 1  ala 	 1.000000 
8076 	 C 	 30.203259 	 38.693357 	 52.352843 	 C 	 1  ala 	 1.000000 
8077 	 C 	 30.867787 	 39.434048 	 52.253946 	 C 	 1  ala 	 1.000000 
8078 	 C 	 30.332309 	 38.708684 	 51.821383 	 C 	 1  ala 	 1.000000 
8079 	 C 	 31.101999 	 38.107792 	 51.605728 	 C 	 1  ala 	 1.000000 
8080 	 C 	 31.821258 	 37.513849 	 51.966141 	 C 	 1  ala 	 1.000000 
8081 	 C 	 31.114791 	 38.138326 	 51.633075 	 C 	 1  ala 	 1.000000 
8082 	 C 	 31.090064 	 38.758656 	 50.849124 	 C 	 1  ala 	 1.000000 
8083 	 C 	 30.582364 	 38.162144 	 50.227503 	 C 	 1  ala 	 1.000000 
8084 	 C 	 30.022231 	 38.741809 	 50.819313 	 C 	 1  ala 	 1.000000 
8085 	 C 	 30.617994 	 39.245937 	 50.194076 	 C 	 1  ala 	 1.000000 
8086 	 C 	 30.901341 	 38.287042 	 50.178707 	 C 	 1  ala 	 1.000000 
8087 	 C 	 30.767618 	 37.945985 	 49.248224 	 C 	 1  ala 	 1.000000 
8088 	 C 	 30.023155 	 38.573753 	 49.020884 	 C 	 1  ala 	 1.000000 
8089 	 C 	 29.675058 	 39.372754 	 48.530552 	 C 	 1  ala 	 1.000000 
8090 	 C 	 28.815473 	 39.508321 	 49.023234 	 C 	 1  ala 	 1.000000 
8091 	 C 	 29.133565 	 39.592673 	 49.967533 	 C 	 1  ala 	 1.000000 
8092 	 C 	 28.992502 	 40.273252 	 49.248566 	 C 	 1  ala 	 1.000000 
8093 	 C 	 29.422494 	 40.846812 	 49.945800 	 C 	 1  ala 	 1.000000 
8094 	 C 	 29.896355 	 40.006113 	 50.207870 	 C 	 1  ala 	 1.000000 
8095 	 C 	 29.714182 	 39.833219 	 49.239923 	 C 	 1  ala 	 1.000000 
8096 	 C 	 29.673797 	 40.260925 	 48.336908 	 C 	 1  ala 	 1.000000 
8097 	 C 	 28.771141 	 39.865198 	 48.506059 	 C 	 1  ala 	 1.000000 
8098 	 C 	 28.600381 	 40.279216 	 49.400167 	 C 	 1  ala 	 1.000000 
8099 	 C 	 28.983508 	 39.795115 	 48.613491 	 C 	 1  ala 	 1.000000 
8100 	 C 	 29.298230 	 40.408853 	 47.889421 	 C 	 1  ala 	 1.000000 
8101 	 C 	 29.876434 	 40.985794 	 48.466326 	 C 	 1  ala 	 1.000000 
8102 	 C 	 30.221197 	 40.224425 	 47.917275 	 C 	 1  ala 	 1.000000 
8103 	 C 	 30.570298 	 40.289023 	 46.982419 	 C 	 1  ala 	 1.000000 
8104 	 C 	 29.694153 	 40.731406 	 46.790934 	 C 	 1  ala 	 1.000000 
8105 	 C 	 30.675571 	 40.881776 	 46.910132 	 C 	 1  ala 	 1.000000 
8106 	 C 	 30.979641 	 40.850880 	 45.957983 	 C 	 1  ala 	 1.000000 
8107 	 C 	 30.065784 	 41.071119 	 45.616868 	 C 	 1  ala 	 1.000000 
8108 	 C 	 30.516867 	 40.861769 	 44.749287 	 C 	 1  ala 	 1.000000 
8109 	 C 	 30.197087 	 40.194313 	 44.076797 	 C 	 1  ala 	 1.000000 
8110 	 C 	 30.275075 	 39.290875 	 44.498363 	 C 	 1  ala 	 1.000000 
8111 	 C 	 29.423248 	 39.440415 	 45.000387 	 C 	 1  ala 	 1.000000 
8112 	 C 	 28.634018 	 39.969285 	 45.312499 	 C 	 1  ala 	 1.000000 
8113 	 C 	 28.858933 	 40.461248 	 46.153561 	 C 	 1  ala 	 1.000000 
8114 	 C 	 29.354715 	 41.128878 	 45.598160 	 C 	 1  ala 	 1.000000 
8115 	 C 	 28.524275 	 40.575225 	 45.536215 	 C 	 1  ala 	 1.000000 
8116 	 C 	 28.109194 	 41.409495 	 45.899122 	 C 	 1  ala 	 1.000000 
8117 	 C 	 28.592640 	 42.189515 	 46.296426 	 C 	 1  ala 	 1.000000 
8118 	 C 	 28.177854 	 42.425624 	 45.417674 	 C 	 1  ala 	 1.000000 
8119 	 C 	 28.002552 	 43.373259 	 45.150734 	 C 	 1  ala 	 1.000000 
8120 	 C 	 28.929251 	 43.260110 	 44.792367 	 C 	 1  ala 	 1.000000 
8121 	 C 	 28.445225 	 44.133268 	 44.734793 	 C 	 1  ala 	 1.000000 
8122 	 C 	 28.340694 	 43.902499 	 45.702171 	 C 	 1  ala 	 1.000000 
8123 	 C 	 27.724081 	 44.655011 	 45.470836 	 C 	 1  ala 	 1.000000 
8124 	 C 	 28.419996 	 43.938850 	 45.523903 	 C 	 1  ala 	 1.000000 
8125 	 C 	 27.979035 	 43.074214 	 45.764646 	 C 	 1  ala 	 1.000000 
8126 	 C 	 27.584773 	 42.512960 	 45.036944 	 C 	 1  ala 	 1.000000 
8127 	 C 	 28.103270 	 42.863508 	 44.257023 	 C 	 1  ala 	 1.000000 
8128 	 C 	 27.336609 	 43.192238 	 44.808536 	 C 	 1  ala 	 1.000000 
8129 	 C 	 28.055444 	 43.703625 	 45.279450 	 C 	 1  ala 	 1.000000 
8130 	 C 	 28.790642 	 44.120240 	 45.814161 	 C 	 1  ala 	 1.000000 
8131 	 C 	 28.501908 	 44.317439 	 46.751042 	 C 	 1  ala 	 1.000000 
8132 	 C 	 28.938553 	 44.776748 	 45.977493 	 C 	 1  ala 	 1.000000 
8133 	 C 	 29.141610 	 45.570460 	 45.404093 	 C 	 1  ala 	 1.000000 
8134 	 C 	 30.093421 	 45.274946 	 45.486116 	 C 	 1  ala 	 1.000000 
8135 	 C 	 29.828514 	 45.865857 	 46.248119 	 C 	 1  ala 	 1.000000 
8136 	 C 	 29.291660 	 45.883152 	 45.404621 	 C 	 1  ala 	 1.000000 
8137 	 C 	 28.739612 	 46.149007 	 44.614328 	 C 	 1  ala 	 1.000000 
8138 	 C 	 28.911941 	 45.181719 	 44.428164 	 C 	 1  ala 	 1.000000 
8139 	 C 	 29.266149 	 45.120745 	 45.361341 	 C 	 1  ala 	 1.000000 
8140 	 C 	 30.209574 	 45.183594 	 45.686914 	 C 	 1  ala 	 1.000000 
8141 	 C 	 30.757542 	 45.157139 	 46.522995 	 C 	 1  ala 	 1.000000 
8142 	 C 	 31.625090 	 45.431745 	 46.108326 	 C 	 1  ala 	 1.000000 
8143 	 C 	 31.959253 	 44.743134 	 46.751871 	 C 	 1  ala 	 1.000000 
8144 	 C 	 31.376456 	 44.170288 	 47.328236 	 C 	 1  ala 	 1.000000 
8145 	 C 	 31.038360 	 45.100013 	 47.182282 	 C 	 1  ala 	 1.000000 
8146 	 C 	 31.931064 	 45.180466 	 47.625685 	 C 	 1  ala 	 1.000000 
8147 	 C 	 32.174670 	 45.409851 	 48.568043 	 C 	 1  ala 	 1.000000 
8148 	 C 	 32.953634 	 45.998594 	 48.352182 	 C 	 1  ala 	 1.000000 
8149 	 C 	 33.301803 	 45.913592 	 47.418612 	 C 	 1  ala 	 1.000000 
8150 	 C 	 33.246198 	 44.984038 	 47.054142 	 C 	 1  ala 	 1.000000 
8151 	 C 	 32.449968 	 45.588889 	 47.040973 	 C 	 1  ala 	 1.000000 
8152 	 C 	 33.207494 	 44.939362 	 47.106305 	 C 	 1  ala 	 1.000000 
8153 	 C 	 32.741229 	 44.278677 	 46.518009 	 C 	 1  ala 	 1.000000 
8154 	 C 	 33.706988 	 44.376333 	 46.277647 	 C 	 1  ala 	 1.000000 
8155 	 C 	 34.397495 	 44.956581 	 45.845776 	 C 	 1  ala 	 1.000000 
8156 	 C 	 35.123902 	 44.354887 	 46.177887 	 C 	 1  ala 	 1.000000 
8157 	 C 	 34.480405 	 43.788705 	 46.693009 	 C 	 1  ala 	 1.000000 
8158 	 C 	 34.678867 	 44.539685 	 46.063214 	 C 	 1  ala 	 1.000000 
8159 	 C 	 35.430556 	 44.438432 	 45.411515 	 C 	 1  ala 	 1.000000 
8160 	 C 	 36.110920 	 44.685965 	 46.101321 	 C 	 1  ala 	 1.000000 
8161 	 C 	 35.531620 	 44.985551 	 45.343258 	 C 	 1  ala 	 1.000000 
8162 	 C 	 36.249838 	 44.529300 	 44.817904 	 C 	 1  ala 	 1.000000 
8163 	 C 	 35.793220 	 45.048093 	 44.095164 	 C 	 1  ala 	 1.000000 
8164 	 C 	 36.535143 	 44.787742 	 44.713038 	 C 	 1  ala 	 1.000000 
8165 	 C 	 37.363620 	 45.250380 	 45.028620 	 C 	 1  ala 	 1.000000 
8166 	 C 	 37.120295 	 45.186934 	 45.996487 	 C 	 1  ala 	 1.000000 
8167 	 C 	 37.175741 	 44.559217 	 45.220023 	 C 	 1  ala 	 1.000000 
8168 	 C 	 37.668588 	 44.040415 	 44.521491 	 C 	 1  ala 	 1.000000 
8169 	 C 	 36.947851 	 44.145577 	 45.206677 	 C 	 1  ala 	 1.000000 
8170 	 C 	 36.167261 	 44.196594 	 45.829634 	 C 	 1  ala 	 1.000000 
8171 	 C 	 37.088572 	 44.239979 	 45.443236 	 C 	 1  ala 	 1.000000 
8172 	 C 	 37.616483 	 44.377890 	 46.281264 	 C 	 1  ala 	 1.000000 
8173 	 C 	 38.276184 	 43.685496 	 46.573473 	 C 	 1  ala 	 1.000000 
8174 	 C 	 38.029288 	 42.782550 	 46.925227 	 C 	 1  ala 	 1.000000 
8175 	 C 	 38.496594 	 42.888083 	 46.047453 	 C 	 1  ala 	 1.000000 
8176 	 C 	 37.965160 	 42.646491 	 45.235535 	 C 	 1  ala 	 1.000000 
8177 	 C 	 37.394904 	 41.897088 	 45.571993 	 C 	 1  ala 	 1.000000 
8178 	 C 	 37.156335 	 41.128562 	 44.978316 	 C 	 1  ala 	 1.000000 
8179 	 C 	 36.315638 	 40.786238 	 44.558740 	 C 	 1  ala 	 1.000000 
8180 	 C 	 36.436054 	 41.749334 	 44.318019 	 C 	 1  ala 	 1.000000 
8181 	 C 	 37.004431 	 41.392471 	 45.059366 	 C 	 1  ala 	 1.000000 
8182 	 C 	 36.081000 	 41.621815 	 44.751670 	 C 	 1  ala 	 1.000000 
8183 	 C 	 36.584606 	 41.296017 	 45.551818 	 C 	 1  ala 	 1.000000 
8184 	 C 	 35.772152 	 41.284089 	 44.968915 	 C 	 1  ala 	 1.000000 
8185 	 C 	 34.913523 	 40.914467 	 45.324072 	 C 	 1  ala 	 1.000000 
8186 	 C 	 34.244152 	 40.348834 	 44.842406 	 C 	 1  ala 	 1.000000 
8187 	 C 	 33.751291 	 40.835005 	 44.120793 	 C 	 1  ala 	 1.000000 
8188 	 C 	 33.641319 	 40.684099 	 45.103205 	 C 	 1  ala 	 1.000000 
8189 	 C 	 33.272301 	 41.009374 	 45.973850 	 C 	 1  ala 	 1.000000 
8190 	 C 	 33.354355 	 40.058006 	 45.676924 	 C 	 1  ala 	 1.000000 
8191 	 C 	 33.333323 	 39.250821 	 45.087000 	 C 	 1  ala 	 1.000000 
8192 	 C 	 33.162783 	 38.704368 	 44.267058 	 C 	 1  ala 	 1.000000 
8193 	 C 	 33.648424 	 38.065939 	 43.669931 	 C 	 1  ala 	 1.000000 
8194 	 C 	 34.322001 	 38.784868 	 43.841496 	 C 	 1  ala 	 1.000000 
8195 	 C 	 33.539262 	 38.226061 	 43.567534 	 C 	 1  ala 	 1.000000 
8196 	 C 	 33.524689 	 39.135277 	 43.983606 	 C 	 1  ala 	 1.000000 
8197 	 C 	 34.046968 	 39.174021 	 43.131711 	 C 	 1  ala 	 1.000000 
8198 	 C 	 33.896795 	 39.213606 	 44.119578 	 C 	 1  ala 	 1.000000 
8199 	 C 	 33.746787 	 38.292844 	 43.759446 	 C 	 1  ala 	 1.000000 
8200 	 C 	 33.376945 	 37.419649 	 44.076853 	 C 	 1  ala 	 1.000000 
8201 	 C 	 32.625016 	 37.627129 	 44.702597 	 C 	 1  ala 	 1.000000 
8202 	 C 	 32.368128 	 37.013042 	 45.448858 	 C 	 1  ala 	 1.000000 
8203 	 C 	 31.505789 	 37.398671 	 45.120739 	 C 	 1  ala 	 1.000000 
8204 	 C 	 31.416152 	 38.298518 	 44.693841 	 C 	 1  ala 	 1.000000 
8205 	 C 	 32.078765 	 37.682746 	 45.120185 	 C 	 1  ala 	 1.000000 
8206 	 C 	 31.400141 	 38.318057 	 45.488762 	 C 	 1  ala 	 1.000000 
8207 	 C 	 31.000297 	 37.492406 	 45.090736 	 C 	 1  ala 	 1.000000 
8208 	 C 	 30.329080 	 37.519880 	 44.349985 	 C 	 1  ala 	 1.000000 
8209 	 C 	 29.351916 	 37.731921 	 44.363728 	 C 	 1  ala 	 1.000000 
8210 	 C 	 29.017020 	 36.973768 	 43.804219 	 C 	 1  ala 	 1.000000 
8211 	 C 	 29.481701 	 36.785766 	 44.669509 	 C 	 1  ala 	 1.000000 
8212 	 C 	 29.619196 	 37.312156 	 45.508561 	 C 	 1  ala 	 1.000000 
8213 	 C 	 30.276661 	 37.608813 	 46.201189 	 C 	 1  ala 	 1.000000 
8214 	 C 	 30.059778 	 38.121608 	 45.370525 	 C 	 1  ala 	 1.000000 
8215 	 C 	 29.533486 	 38.220470 	 44.525988 	 C 	 1  ala 	 1.000000 
8216 	 C 	 29.707513 	 37.903242 	 43.593743 	 C 	 1  ala 	 1.000000 
8217 	 C 	 30.180447 	 37.214789 	 44.143621 	 C 	 1  ala 	 1.000000 
8218 	 C 	 29.275443 	 36.870035 	 43.894399 	 C 	 1  ala 	 1.000000 
8219 	 C 	 28.745437 	 36.092623 	 44.233109 	 C 	 1  ala 	 1.000000 
8220 	 C 	 29.128367 	 35.469580 	 44.915151 	 C 	 1  ala 	 1.000000 
8221 	 C 	 28.944485 	 34.574412 	 45.321183 	 C 	 1  ala 	 1.000000 
8222 	 C 	 29.717382 	 34.545490 	 44.687311 	 C 	 1  ala 	 1.000000 
8223 	 C 	 29.628936 	 34.727740 	 43.708045 	 C 	 1  ala 	 1.000000 
8224 	 C 	 30.396745 	 34.799893 	 43.071442 	 C 	 1  ala 	 1.000000 
8225 	 C 	 29.799119 	 34.221319 	 43.626506 	 C 	 1  ala 	 1.000000 
8226 	 C 	 29.090810 	 34.201339 	 44.332125 	 C 	 1  ala 	 1.000000 
8227 	 C 	 28.915316 	 33.744287 	 45.204079 	 C 	 1  ala 	 1.000000 
8228 	 C 	 28.562281 	 34.649452 	 44.967345 	 C 	 1  ala 	 1.000000 
8229 	 C 	 27.763920 	 35.052276 	 45.414952 	 C 	 1  ala 	 1.000000 
8230 	 C 	 27.459892 	 35.823419 	 45.974331 	 C 	 1  ala 	 1.000000 
8231 	 C 	 27.119646 	 35.335312 	 45.170600 	 C 	 1  ala 	 1.000000 
8232 	 C 	 27.190711 	 36.307687 	 45.392945 	 C 	 1  ala 	 1.000000 
8233 	 C 	 27.270990 	 35.338440 	 45.625572 	 C 	 1  ala 	 1.000000 
8234 	 C 	 26.527572 	 35.992719 	 45.764306 	 C 	 1  ala 	 1.000000 
8235 	 C 	 27.244964 	 36.383691 	 46.340925 	 C 	 1  ala 	 1.000000 
8236 	 C 	 28.233760 	 36.340607 	 46.483848 	 C 	 1  ala 	 1.000000 
8237 	 C 	 27.314010 	 36.553678 	 46.154210 	 C 	 1  ala 	 1.000000 
8238 	 C 	 27.872778 	 36.996993 	 45.453317 	 C 	 1  ala 	 1.000000 
8239 	 C 	 28.541990 	 37.139637 	 46.182569 	 C 	 1  ala 	 1.000000 
8240 	 C 	 28.985388 	 37.809028 	 46.778650 	 C 	 1  ala 	 1.000000 
8241 	 C 	 28.173051 	 38.102014 	 47.282901 	 C 	 1  ala 	 1.000000 
8242 	 C 	 28.430746 	 38.419479 	 46.370318 	 C 	 1  ala 	 1.000000 
8243 	 C 	 28.192441 	 37.510727 	 46.027708 	 C 	 1  ala 	 1.000000 
8244 	 C 	 28.981626 	 38.067664 	 46.286566 	 C 	 1  ala 	 1.000000 
8245 	 C 	 29.809225 	 37.942630 	 45.739348 	 C 	 1  ala 	 1.000000 
8246 	 C 	 30.042236 	 37.200827 	 46.368183 	 C 	 1  ala 	 1.000000 
8247 	 C 	 29.639641 	 36.345187 	 46.042919 	 C 	 1  ala 	 1.000000 
8248 	 C 	 29.408774 	 36.293397 	 45.071313 	 C 	 1  ala 	 1.000000 
8249 	 C 	 28.904335 	 36.835812 	 44.399504 	 C 	 1  ala 	 1.000000 
8250 	 C 	 28.723969 	 36.515913 	 43.469379 	 C 	 1  ala 	 1.000000 
8251 	 C 	 27.871477 	 36.901226 	 43.822639 	 C 	 1  ala 	 1.000000 
8252 	 C 	 27.371578 	 37.476786 	 44.469811 	 C 	 1  ala 	 1.000000 
8253 	 C 	 27.969082 	 37.002880 	 45.116651 	 C 	 1  ala 	 1.000000 
8254 	 C 	 27.755324 	 36.909573 	 44.144231 	 C 	 1  ala 	 1.000000 
8255 	 C 	 28.497412 	 36.804555 	 44.806255 	 C 	 1  ala 	 1.000000 
8256 	 C 	 28.411362 	 37.778790 	 44.597780 	 C 	 1  ala 	 1.000000 
8257 	 C 	 27.536550 	 37.329549 	 44.779123 	 C 	 1  ala 	 1.000000 
8258 	 C 	 28.215524 	 37.666494 	 44.126849 	 C 	 1  ala 	 1.000000 
8259 	 C 	 27.942960 	 38.060265 	 43.248980 	 C 	 1  ala 	 1.000000 
8260 	 C 	 27.526019 	 38.398778 	 44.092526 	 C 	 1  ala 	 1.000000 
8261 	 C 	 27.883606 	 39.220518 	 43.648820 	 C 	 1  ala 	 1.000000 
8262 	 C 	 27.235740 	 38.556002 	 44.021228 	 C 	 1  ala 	 1.000000 
8263 	 C 	 26.927380 	 37.733073 	 43.544047 	 C 	 1  ala 	 1.000000 
8264 	 C 	 26.862030 	 38.204836 	 42.664747 	 C 	 1  ala 	 1.000000 
8265 	 C 	 27.531343 	 38.603656 	 42.037880 	 C 	 1  ala 	 1.000000 
8266 	 C 	 28.366940 	 39.138627 	 41.913042 	 C 	 1  ala 	 1.000000 
8267 	 C 	 28.015323 	 38.491214 	 42.589224 	 C 	 1  ala 	 1.000000 
8268 	 C 	 27.427397 	 38.812555 	 43.331574 	 C 	 1  ala 	 1.000000 
8269 	 C 	 28.088892 	 39.299863 	 42.761526 	 C 	 1  ala 	 1.000000 
8270 	 C 	 29.036612 	 39.583744 	 42.615793 	 C 	 1  ala 	 1.000000 
8271 	 C 	 30.008195 	 39.736061 	 42.796975 	 C 	 1  ala 	 1.000000 
8272 	 C 	 30.704049 	 40.115547 	 43.406710 	 C 	 1  ala 	 1.000000 
8273 	 C 	 30.977193 	 40.783808 	 44.098679 	 C 	 1  ala 	 1.000000 
8274 	 C 	 31.516196 	 40.116830 	 43.584270 	 C 	 1  ala 	 1.000000 
8275 	 C 	 32.192795 	 39.473877 	 43.225347 	 C 	 1  ala 	 1.000000 
8276 	 C 	 31.302858 	 39.433550 	 43.679643 	 C 	 1  ala 	 1.000000 
8277 	 C 	 30.484211 	 38.945915 	 43.983008 	 C 	 1  ala 	 1.000000 
8278 	 C 	 30.295694 	 38.974358 	 43.001350 	 C 	 1  ala 	 1.000000 
8279 	 C 	 30.538742 	 39.685462 	 43.661092 	 C 	 1  ala 	 1.000000 
8280 	 C 	 29.626146 	 40.093145 	 43.630045 	 C 	 1  ala 	 1.000000 
8281 	 C 	 29.645521 	 39.630480 	 44.516366 	 C 	 1  ala 	 1.000000 
8282 	 C 	 28.866860 	 39.107224 	 44.862620 	 C 	 1  ala 	 1.000000 
8283 	 C 	 28.684199 	 39.838946 	 44.205948 	 C 	 1  ala 	 1.000000 
8284 	 C 	 29.388517 	 40.540548 	 44.314066 	 C 	 1  ala 	 1.000000 
8285 	 C 	 29.820380 	 39.639113 	 44.344230 	 C 	 1  ala 	 1.000000 
8286 	 C 	 29.534886 	 40.353256 	 44.983364 	 C 	 1  ala 	 1.000000 
8287 	 C 	 29.250625 	 39.424527 	 45.221392 	 C 	 1  ala 	 1.000000 
8288 	 C 	 28.959969 	 39.761643 	 44.325920 	 C 	 1  ala 	 1.000000 
8289 	 C 	 28.722806 	 38.942528 	 44.848227 	 C 	 1  ala 	 1.000000 
8290 	 C 	 29.428148 	 39.642730 	 44.958726 	 C 	 1  ala 	 1.000000 
8291 	 C 	 29.191616 	 40.093632 	 45.819388 	 C 	 1  ala 	 1.000000 
8292 	 C 	 29.211982 	 39.263013 	 45.262919 	 C 	 1  ala 	 1.000000 
8293 	 C 	 28.921118 	 39.186610 	 44.309210 	 C 	 1  ala 	 1.000000 
8294 	 C 	 28.406639 	 38.738486 	 45.040302 	 C 	 1  ala 	 1.000000 
8295 	 C 	 28.382480 	 37.927617 	 44.455572 	 C 	 1  ala 	 1.000000 
8296 	 C 	 29.054626 	 38.199399 	 43.766838 	 C 	 1  ala 	 1.000000 
8297 	 C 	 28.859722 	 37.291858 	 44.138835 	 C 	 1  ala 	 1.000000 
8298 	 C 	 29.847573 	 37.445658 	 44.116541 	 C 	 1  ala 	 1.000000 
8299 	 C 	 30.673392 	 37.516045 	 43.557017 	 C 	 1  ala 	 1.000000 
8300 	 C 	 31.155470 	 36.759371 	 43.998656 	 C 	 1  ala 	 1.000000 
8301 	 C 	 31.495995 	 35.823808 	 44.092274 	 C 	 1  ala 	 1.000000 
8302 	 C 	 30.537747 	 35.935965 	 44.355298 	 C 	 1  ala 	 1.000000 
8303 	 C 	 31.037683 	 35.838093 	 45.215813 	 C 	 1  ala 	 1.000000 
8304 	 C 	 31.807702 	 36.439141 	 45.429852 	 C 	 1  ala 	 1.000000 
8305 	 C 	 31.334125 	 36.754065 	 44.607327 	 C 	 1  ala 	 1.000000 
8306 	 C 	 31.030051 	 37.186695 	 45.456073 	 C 	 1  ala 	 1.000000 
8307 	 C 	 30.686445 	 37.269519 	 46.391527 	 C 	 1  ala 	 1.000000 
8308 	 C 	 30.729080 	 38.268502 	 46.406189 	 C 	 1  ala 	 1.000000 
8309 	 C 	 31.270670 	 37.809894 	 47.110717 	 C 	 1  ala 	 1.000000 
8310 	 C 	 30.550935 	 38.264553 	 47.635378 	 C 	 1  ala 	 1.000000 
8311 	 C 	 29.804801 	 38.031928 	 48.259212 	 C 	 1  ala 	 1.000000 
8312 	 C 	 30.054423 	 38.116096 	 49.223890 	 C 	 1  ala 	 1.000000 
8313 	 C 	 29.166689 	 38.064855 	 49.681387 	 C 	 1  ala 	 1.000000 
8314 	 C 	 28.486417 	 38.049633 	 50.414188 	 C 	 1  ala 	 1.000000 
8315 	 C 	 27.893776 	 37.510896 	 49.815408 	 C 	 1  ala 	 1.000000 
8316 	 C 	 28.059643 	 38.310675 	 50.392331 	 C 	 1  ala 	 1.000000 
8317 	 C 	 27.533070 	 38.729130 	 49.652320 	 C 	 1  ala 	 1.000000 
8318 	 C 	 26.725923 	 38.389011 	 49.169793 	 C 	 1  ala 	 1.000000 
8319 	 C 	 26.645875 	 38.195156 	 48.192034 	 C 	 1  ala 	 1.000000 
8320 	 C 	 27.256895 	 38.017630 	 48.963486 	 C 	 1  ala 	 1.000000 
8321 	 C 	 27.342753 	 37.022430 	 49.010454 	 C 	 1  ala 	 1.000000 
8322 	 C 	 27.710566 	 37.943338 	 49.139458 	 C 	 1  ala 	 1.000000 
8323 	 C 	 28.262806 	 37.567318 	 49.883528 	 C 	 1  ala 	 1.000000 
8324 	 C 	 27.268655 	 37.674483 	 49.870155 	 C 	 1  ala 	 1.000000 
8325 	 C 	 27.869598 	 36.879014 	 49.792075 	 C 	 1  ala 	 1.000000 
8326 	 C 	 28.220155 	 36.501107 	 48.935164 	 C 	 1  ala 	 1.000000 
8327 	 C 	 28.160521 	 36.819855 	 49.881126 	 C 	 1  ala 	 1.000000 
8328 	 C 	 28.109357 	 36.043316 	 49.253137 	 C 	 1  ala 	 1.000000 
8329 	 C 	 29.080397 	 35.815970 	 49.179687 	 C 	 1  ala 	 1.000000 
8330 	 C 	 28.507600 	 35.847907 	 48.360612 	 C 	 1  ala 	 1.000000 
8331 	 C 	 29.105847 	 35.068656 	 48.547345 	 C 	 1  ala 	 1.000000 
8332 	 C 	 28.778361 	 35.326547 	 47.638365 	 C 	 1  ala 	 1.000000 
8333 	 C 	 28.462821 	 36.199210 	 48.011049 	 C 	 1  ala 	 1.000000 
8334 	 C 	 28.344267 	 35.208341 	 48.075256 	 C 	 1  ala 	 1.000000 
8335 	 C 	 28.047836 	 34.602068 	 47.337312 	 C 	 1  ala 	 1.000000 
8336 	 C 	 28.871068 	 35.168703 	 47.302457 	 C 	 1  ala 	 1.000000 
8337 	 C 	 29.178681 	 34.233886 	 47.479918 	 C 	 1  ala 	 1.000000 
8338 	 C 	 28.368868 	 34.192180 	 48.065122 	 C 	 1  ala 	 1.000000 
8339 	 C 	 27.396295 	 34.416155 	 48.127858 	 C 	 1  ala 	 1.000000 
8340 	 C 	 27.224853 	 34.555595 	 47.152582 	 C 	 1  ala 	 1.000000 
8341 	 C 	 27.528309 	 33.827561 	 47.767302 	 C 	 1  ala 	 1.000000 
8342 	 C 	 27.114328 	 34.061188 	 48.647096 	 C 	 1  ala 	 1.000000 
8343 	 C 	 28.104944 	 33.940771 	 48.582445 	 C 	 1  ala 	 1.000000 
8344 	 C 	 29.045020 	 34.175712 	 48.335342 	 C 	 1  ala 	 1.000000 
8345 	 C 	 29.210537 	 34.300643 	 47.357080 	 C 	 1  ala 	 1.000000 
8346 	 C 	 28.768294 	 35.190016 	 47.472996 	 C 	 1  ala 	 1.000000 
8347 	 C 	 27.973953 	 34.817762 	 47.953048 	 C 	 1  ala 	 1.000000 
8348 	 C 	 27.514620 	 35.254684 	 48.726426 	 C 	 1  ala 	 1.000000 
8349 	 C 	 27.250577 	 34.322658 	 48.974639 	 C 	 1  ala 	 1.000000 
8350 	 C 	 27.595970 	 34.229397 	 49.908451 	 C 	 1  ala 	 1.000000 
8351 	 C 	 27.001972 	 34.015778 	 50.684037 	 C 	 1  ala 	 1.000000 
8352 	 C 	 27.001405 	 34.779058 	 51.330105 	 C 	 1  ala 	 1.000000 
8353 	 C 	 27.502599 	 35.530752 	 50.901432 	 C 	 1  ala 	 1.000000 
8354 	 C 	 28.039649 	 34.689989 	 50.969940 	 C 	 1  ala 	 1.000000 
8355 	 C 	 27.321332 	 34.381290 	 51.593419 	 C 	 1  ala 	 1.000000 
8356 	 C 	 27.527396 	 33.485561 	 51.987382 	 C 	 1  ala 	 1.000000 
8357 	 C 	 27.617466 	 32.646890 	 51.450243 	 C 	 1  ala 	 1.000000 
8358 	 C 	 26.735900 	 33.118749 	 51.436435 	 C 	 1  ala 	 1.000000 
8359 	 C 	 26.512521 	 32.166660 	 51.645309 	 C 	 1  ala 	 1.000000 
8360 	 C 	 27.439994 	 32.525967 	 51.541901 	 C 	 1  ala 	 1.000000 
8361 	 C 	 26.958706 	 32.283259 	 50.699610 	 C 	 1  ala 	 1.000000 
8362 	 C 	 26.714047 	 31.354865 	 50.419920 	 C 	 1  ala 	 1.000000 
8363 	 C 	 27.279017 	 30.674008 	 50.886012 	 C 	 1  ala 	 1.000000 
8364 	 C 	 27.580202 	 31.627542 	 50.893752 	 C 	 1  ala 	 1.000000 
8365 	 C 	 28.335616 	 30.972382 	 50.904477 	 C 	 1  ala 	 1.000000 
8366 	 C 	 29.141466 	 30.558229 	 50.481294 	 C 	 1  ala 	 1.000000 
8367 	 C 	 28.146523 	 30.650835 	 50.442392 	 C 	 1  ala 	 1.000000 
8368 	 C 	 27.843137 	 31.574742 	 50.675528 	 C 	 1  ala 	 1.000000 
8369 	 C 	 28.126323 	 32.389486 	 51.181490 	 C 	 1  ala 	 1.000000 
8370 	 C 	 27.654359 	 33.183427 	 51.564776 	 C 	 1  ala 	 1.000000 
8371 	 C 	 27.480802 	 32.654885 	 52.395752 	 C 	 1  ala 	 1.000000 
8372 	 C 	 26.619832 	 32.786227 	 52.887159 	 C 	 1  ala 	 1.000000 
8373 	 C 	 26.272219 	 32.927236 	 53.814133 	 C 	 1  ala 	 1.000000 
8374 	 C 	 27.253574 	 33.100981 	 53.896331 	 C 	 1  ala 	 1.000000 
8375 	 C 	 28.192974 	 32.885745 	 54.163165 	 C 	 1  ala 	 1.000000 
8376 	 C 	 27.534306 	 33.469313 	 53.688186 	 C 	 1  ala 	 1.000000 
8377 	 C 	 27.682654 	 33.717166 	 54.645559 	 C 	 1  ala 	 1.000000 
8378 	 C 	 28.394517 	 34.022879 	 54.013269 	 C 	 1  ala 	 1.000000 
8379 	 C 	 27.420133 	 34.192394 	 53.865487 	 C 	 1  ala 	 1.000000 
8380 	 C 	 27.411450 	 34.881002 	 53.140404 	 C 	 1  ala 	 1.000000 
8381 	 C 	 27.751798 	 34.162321 	 52.534054 	 C 	 1  ala 	 1.000000 
8382 	 C 	 27.895154 	 33.880897 	 51.585239 	 C 	 1  ala 	 1.000000 
8383 	 C 	 28.050517 	 32.942961 	 51.275177 	 C 	 1  ala 	 1.000000 
8384 	 C 	 28.272537 	 32.059147 	 51.686978 	 C 	 1  ala 	 1.000000 
8385 	 C 	 28.235367 	 32.795331 	 52.362738 	 C 	 1  ala 	 1.000000 
8386 	 C 	 28.748308 	 32.516414 	 53.174586 	 C 	 1  ala 	 1.000000 
8387 	 C 	 29.529078 	 32.667433 	 53.780879 	 C 	 1  ala 	 1.000000 
8388 	 C 	 30.087157 	 32.500187 	 52.968120 	 C 	 1  ala 	 1.000000 
8389 	 C 	 29.363958 	 32.173663 	 52.359544 	 C 	 1  ala 	 1.000000 
8390 	 C 	 28.746606 	 31.409493 	 52.546418 	 C 	 1  ala 	 1.000000 
8391 	 C 	 28.533050 	 32.246001 	 53.051046 	 C 	 1  ala 	 1.000000 
8392 	 C 	 28.683916 	 31.982276 	 52.098319 	 C 	 1  ala 	 1.000000 
8393 	 C 	 29.409919 	 31.730934 	 52.738434 	 C 	 1  ala 	 1.000000 
8394 	 C 	 28.496578 	 32.081508 	 52.531298 	 C 	 1  ala 	 1.000000 
8395 	 C 	 28.041751 	 31.642031 	 51.756706 	 C 	 1  ala 	 1.000000 
8396 	 C 	 27.197690 	 32.001644 	 52.154501 	 C 	 1  ala 	 1.000000 
8397 	 C 	 28.095295 	 31.575867 	 52.040399 	 C 	 1  ala 	 1.000000 
8398 	 C 	 28.954895 	 31.215934 	 51.677718 	 C 	 1  ala 	 1.000000 
8399 	 C 	 29.532005 	 30.422135 	 51.869620 	 C 	 1  ala 	 1.000000 
8400 	 C 	 29.436131 	 31.346884 	 52.237923 	 C 	 1  ala 	 1.000000 
8401 	 C 	 29.701540 	 31.784615 	 53.096963 	 C 	 1  ala 	 1.000000 
8402 	 C 	 29.671043 	 32.782719 	 53.043503 	 C 	 1  ala 	 1.000000 
8403 	 C 	 30.032102 	 32.411059 	 53.898783 	 C 	 1  ala 	 1.000000 
8404 	 C 	 30.516777 	 33.284963 	 53.935949 	 C 	 1  ala 	 1.000000 
8405 	 C 	 30.901303 	 32.646361 	 54.602527 	 C 	 1  ala 	 1.000000 
8406 	 C 	 30.096069 	 32.978296 	 54.111185 	 C 	 1  ala 	 1.000000 
8407 	 C 	 30.721523 	 32.293830 	 54.485770 	 C 	 1  ala 	 1.000000 
8408 	 C 	 30.998058 	 32.247644 	 55.445663 	 C 	 1  ala 	 1.000000 
8409 	 C 	 30.479558 	 33.079137 	 55.645106 	 C 	 1  ala 	 1.000000 
8410 	 C 	 30.641194 	 32.976986 	 56.626655 	 C 	 1  ala 	 1.000000 
8411 	 C 	 29.884911 	 33.138213 	 55.992587 	 C 	 1  ala 	 1.000000 
8412 	 C 	 30.645151 	 33.343183 	 56.609047 	 C 	 1  ala 	 1.000000 
8413 	 C 	 29.797691 	 33.815424 	 56.366561 	 C 	 1  ala 	 1.000000 
8414 	 C 	 29.713864 	 34.435641 	 55.586623 	 C 	 1  ala 	 1.000000 
8415 	 C 	 30.101851 	 34.094889 	 54.730262 	 C 	 1  ala 	 1.000000 
8416 	 C 	 30.516613 	 34.171081 	 53.823528 	 C 	 1  ala 	 1.000000 
8417 	 C 	 31.124387 	 34.701085 	 53.232168 	 C 	 1  ala 	 1.000000 
8418 	 C 	 31.766537 	 34.270274 	 52.598096 	 C 	 1  ala 	 1.000000 
8419 	 C 	 32.596926 	 33.811681 	 52.281639 	 C 	 1  ala 	 1.000000 
8420 	 C 	 33.132706 	 33.385325 	 51.552831 	 C 	 1  ala 	 1.000000 
8421 	 C 	 34.034732 	 33.796605 	 51.421692 	 C 	 1  ala 	 1.000000 
8422 	 C 	 34.260339 	 34.262372 	 52.277357 	 C 	 1  ala 	 1.000000 
8423 	 C 	 34.827586 	 34.889936 	 52.810643 	 C 	 1  ala 	 1.000000 
8424 	 C 	 33.835997 	 34.994188 	 52.887345 	 C 	 1  ala 	 1.000000 
8425 	 C 	 34.287324 	 34.169656 	 53.228595 	 C 	 1  ala 	 1.000000 
8426 	 C 	 34.543314 	 34.482985 	 54.143086 	 C 	 1  ala 	 1.000000 
8427 	 C 	 34.089667 	 35.357645 	 53.972280 	 C 	 1  ala 	 1.000000 
8428 	 C 	 33.846330 	 36.091653 	 53.338230 	 C 	 1  ala 	 1.000000 
8429 	 C 	 33.028566 	 36.646060 	 53.492810 	 C 	 1  ala 	 1.000000 
8430 	 C 	 33.960728 	 36.485163 	 53.168486 	 C 	 1  ala 	 1.000000 
8431 	 C 	 34.300342 	 37.384173 	 53.444968 	 C 	 1  ala 	 1.000000 
8432 	 C 	 33.895578 	 37.798145 	 52.629619 	 C 	 1  ala 	 1.000000 
8433 	 C 	 33.725573 	 36.893194 	 52.239541 	 C 	 1  ala 	 1.000000 
8434 	 C 	 33.245836 	 36.071594 	 51.931602 	 C 	 1  ala 	 1.000000 
8435 	 C 	 32.828389 	 36.976951 	 51.853706 	 C 	 1  ala 	 1.000000 
8436 	 C 	 33.766488 	 37.323312 	 51.855749 	 C 	 1  ala 	 1.000000 
8437 	 C 	 34.661929 	 36.883930 	 51.784125 	 C 	 1  ala 	 1.000000 
8438 	 C 	 33.861963 	 36.900582 	 52.383939 	 C 	 1  ala 	 1.000000 
8439 	 C 	 33.048379 	 36.470875 	 52.775645 	 C 	 1  ala 	 1.000000 
8440 	 C 	 33.876770 	 36.605014 	 53.319497 	 C 	 1  ala 	 1.000000 
8441 	 C 	 33.016201 	 36.970034 	 52.964277 	 C 	 1  ala 	 1.000000 
8442 	 C 	 33.474779 	 36.130539 	 53.255745 	 C 	 1  ala 	 1.000000 
8443 	 C 	 33.767132 	 35.668011 	 52.418728 	 C 	 1  ala 	 1.000000 
8444 	 C 	 34.219590 	 35.020950 	 53.032400 	 C 	 1  ala 	 1.000000 
8445 	 C 	 34.665409 	 34.656021 	 52.215044 	 C 	 1  ala 	 1.000000 
8446 	 C 	 33.805487 	 34.325410 	 52.603929 	 C 	 1  ala 	 1.000000 
8447 	 C 	 33.128951 	 33.732799 	 52.166767 	 C 	 1  ala 	 1.000000 
8448 	 C 	 33.599521 	 32.870728 	 52.354907 	 C 	 1  ala 	 1.000000 
8449 	 C 	 33.865510 	 32.622068 	 53.286260 	 C 	 1  ala 	 1.000000 
8450 	 O 	 33.082058 	 32.757023 	 53.892881 	 O 	 1  ala 	 1.000000 
8451 	 C 	 33.943585 	 33.183573 	 54.168247 	 C 	 1  ala 	 1.000000 
8452 	 C 	 33.574285 	 32.254528 	 54.190441 	 C 	 1  ala 	 1.000000 
8453 	 C 	 32.596551 	 32.094450 	 54.054748 	 C 	 1  ala 	 1.000000 
8454 	 C 	 32.798862 	 32.097056 	 53.075430 	 C 	 1  ala 	 1.000000 
8455 	 C 	 32.188101 	 31.653776 	 52.419325 	 C 	 1  ala 	 1.000000 
8456 	 C 	 32.196974 	 32.467124 	 53.001035 	 C 	 1  ala 	 1.000000 
8457 	 C 	 32.022402 	 33.443002 	 53.132130 	 C 	 1  ala 	 1.000000 
8458 	 C 	 31.816864 	 34.403696 	 53.318733 	 C 	 1  ala 	 1.000000 
8459 	 C 	 30.991731 	 33.849058 	 53.426115 	 C 	 1  ala 	 1.000000 
8460 	 C 	 30.757448 	 34.202230 	 54.331864 	 C 	 1  ala 	 1.000000 
8461 	 C 	 30.913856 	 33.666334 	 53.502194 	 C 	 1  ala 	 1.000000 
8462 	 C 	 30.659246 	 34.620224 	 53.343235 	 C 	 1  ala 	 1.000000 
8463 	 C 	 30.888093 	 35.577534 	 53.519830 	 C 	 1  ala 	 1.000000 
8464 	 C 	 30.924030 	 36.085709 	 54.380334 	 C 	 1  ala 	 1.000000 
8465 	 C 	 31.558178 	 36.651438 	 54.907407 	 C 	 1  ala 	 1.000000 
8466 	 C 	 32.172228 	 36.085637 	 55.457690 	 C 	 1  ala 	 1.000000 
8467 	 C 	 33.074086 	 35.656256 	 55.409879 	 C 	 1  ala 	 1.000000 
8468 	 C 	 33.657924 	 36.258504 	 54.865424 	 C 	 1  ala 	 1.000000 
8469 	 C 	 34.578348 	 35.910326 	 55.043167 	 C 	 1  ala 	 1.000000 
8470 	 C 	 34.807581 	 36.527550 	 54.290513 	 C 	 1  ala 	 1.000000 
8471 	 C 	 34.042446 	 36.809559 	 54.869338 	 C 	 1  ala 	 1.000000 
8472 	 C 	 33.374092 	 36.650025 	 55.595873 	 C 	 1  ala 	 1.000000 
8473 	 C 	 34.235289 	 36.669237 	 55.087965 	 C 	 1  ala 	 1.000000 
8474 	 C 	 33.562869 	 37.328450 	 54.751380 	 C 	 1  ala 	 1.000000 
8475 	 C 	 33.502188 	 38.194083 	 55.248369 	 C 	 1  ala 	 1.000000 
8476 	 C 	 34.187713 	 38.202106 	 55.976374 	 C 	 1  ala 	 1.000000 
8477 	 C 	 33.619752 	 38.298632 	 55.158999 	 C 	 1  ala 	 1.000000 
8478 	 C 	 34.229245 	 38.017122 	 55.900127 	 C 	 1  ala 	 1.000000 
8479 	 C 	 33.502686 	 38.253927 	 55.255118 	 C 	 1  ala 	 1.000000 
8480 	 C 	 33.366107 	 38.863388 	 56.036081 	 C 	 1  ala 	 1.000000 
8481 	 C 	 34.028913 	 39.401847 	 55.515744 	 C 	 1  ala 	 1.000000 
8482 	 C 	 34.845815 	 38.854247 	 55.334624 	 C 	 1  ala 	 1.000000 
8483 	 C 	 34.117500 	 39.455192 	 55.005349 	 C 	 1  ala 	 1.000000 
8484 	 C 	 34.909490 	 39.262650 	 55.584728 	 C 	 1  ala 	 1.000000 
8485 	 C 	 34.200453 	 39.967467 	 55.562409 	 C 	 1  ala 	 1.000000 
8486 	 C 	 33.825896 	 39.055572 	 55.730199 	 C 	 1  ala 	 1.000000 
8487 	 C 	 34.809403 	 39.236416 	 55.733303 	 C 	 1  ala 	 1.000000 
8488 	 C 	 35.106250 	 39.829100 	 54.984566 	 C 	 1  ala 	 1.000000 
8489 	 C 	 34.609091 	 40.507858 	 55.525047 	 C 	 1  ala 	 1.000000 
8490 	 C 	 34.522618 	 39.511718 	 55.509971 	 C 	 1  ala 	 1.000000 
8491 	 C 	 34.837512 	 39.915848 	 56.368761 	 C 	 1  ala 	 1.000000 
8492 	 C 	 34.290828 	 39.809124 	 55.538252 	 C 	 1  ala 	 1.000000 
8493 	 C 	 34.683277 	 39.403671 	 54.712666 	 C 	 1  ala 	 1.000000 
8494 	 C 	 35.008626 	 40.188100 	 54.184632 	 C 	 1  ala 	 1.000000 
8495 	 C 	 34.058035 	 40.498546 	 54.185277 	 C 	 1  ala 	 1.000000 
8496 	 C 	 34.628566 	 39.792139 	 54.604185 	 C 	 1  ala 	 1.000000 
8497 	 C 	 34.435968 	 39.759150 	 55.584908 	 C 	 1  ala 	 1.000000 
8498 	 C 	 33.751515 	 39.499816 	 54.903535 	 C 	 1  ala 	 1.000000 
8499 	 C 	 34.527846 	 40.113206 	 55.048662 	 C 	 1  ala 	 1.000000 
8500 	 C 	 35.437624 	 40.302557 	 54.679269 	 C 	 1  ala 	 1.000000 
8501 	 C 	 35.131211 	 40.071581 	 53.755818 	 C 	 1  ala 	 1.000000 
8502 	 C 	 35.909809 	 39.467243 	 53.586818 	 C 	 1  ala 	 1.000000 
8503 	 C 	 36.116673 	 39.844094 	 52.683940 	 C 	 1  ala 	 1.000000 
8504 	 C 	 35.125491 	 39.941529 	 52.773745 	 C 	 1  ala 	 1.000000 
8505 	 C 	 35.074959 	 39.052562 	 53.228919 	 C 	 1  ala 	 1.000000 
8506 	 C 	 34.965328 	 39.088893 	 54.222227 	 C 	 1  ala 	 1.000000 
8507 	 C 	 35.541830 	 38.271972 	 54.239159 	 C 	 1  ala 	 1.000000 
8508 	 C 	 35.819931 	 37.325518 	 54.075196 	 C 	 1  ala 	 1.000000 
8509 	 C 	 35.335963 	 38.191524 	 54.200927 	 C 	 1  ala 	 1.000000 
8510 	 C 	 34.457645 	 37.906257 	 54.584567 	 C 	 1  ala 	 1.000000 
8511 	 C 	 34.167492 	 37.441102 	 55.420894 	 C 	 1  ala 	 1.000000 
8512 	 C 	 33.895063 	 38.238363 	 55.959557 	 C 	 1  ala 	 1.000000 
8513 	 C 	 34.017812 	 37.548973 	 56.673472 	 C 	 1  ala 	 1.000000 
8514 	 C 	 33.026144 	 37.482305 	 56.563245 	 C 	 1  ala 	 1.000000 
8515 	 C 	 33.509771 	 37.916605 	 57.323171 	 C 	 1  ala 	 1.000000 
8516 	 C 	 33.958942 	 38.724385 	 56.941415 	 C 	 1  ala 	 1.000000 
8517 	 C 	 34.013898 	 37.840657 	 56.476653 	 C 	 1  ala 	 1.000000 
8518 	 C 	 34.172890 	 38.718788 	 56.025424 	 C 	 1  ala 	 1.000000 
8519 	 C 	 34.072083 	 38.048520 	 56.760665 	 C 	 1  ala 	 1.000000 
8520 	 C 	 33.134941 	 37.721837 	 56.883310 	 C 	 1  ala 	 1.000000 
8521 	 C 	 32.845517 	 36.795020 	 56.644054 	 C 	 1  ala 	 1.000000 
8522 	 C 	 32.052241 	 37.036906 	 57.202807 	 C 	 1  ala 	 1.000000 
8523 	 C 	 31.184381 	 37.514166 	 57.064818 	 C 	 1  ala 	 1.000000 
8524 	 C 	 31.737870 	 38.032688 	 57.716573 	 C 	 1  ala 	 1.000000 
8525 	 C 	 31.364265 	 37.243510 	 58.204032 	 C 	 1  ala 	 1.000000 
8526 	 C 	 32.337297 	 37.442426 	 58.087236 	 C 	 1  ala 	 1.000000 
8527 	 C 	 32.170300 	 37.047330 	 57.183902 	 C 	 1  ala 	 1.000000 
8528 	 C 	 32.201926 	 36.088984 	 57.467757 	 C 	 1  ala 	 1.000000 
8529 	 C 	 32.753026 	 36.555305 	 58.159734 	 C 	 1  ala 	 1.000000 
8530 	 C 	 33.137741 	 35.635564 	 58.081815 	 C 	 1  ala 	 1.000000 
8531 	 C 	 33.709162 	 35.693192 	 57.263183 	 C 	 1  ala 	 1.000000 
8532 	 C 	 34.633924 	 35.999799 	 57.488585 	 C 	 1  ala 	 1.000000 
8533 	 C 	 34.235437 	 36.684233 	 58.099124 	 C 	 1  ala 	 1.000000 
8534 	 C 	 33.288223 	 36.364288 	 58.078593 	 C 	 1  ala 	 1.000000 
8535 	 C 	 33.634801 	 37.052946 	 57.441698 	 C 	 1  ala 	 1.000000 
8536 	 C 	 33.197284 	 37.951563 	 57.474370 	 C 	 1  ala 	 1.000000 
8537 	 C 	 32.230578 	 37.908064 	 57.222206 	 C 	 1  ala 	 1.000000 
8538 	 C 	 33.200833 	 37.900054 	 56.980252 	 C 	 1  ala 	 1.000000 
8539 	 C 	 33.162799 	 37.040936 	 56.469890 	 C 	 1  ala 	 1.000000 
8540 	 C 	 33.358028 	 37.906052 	 56.007872 	 C 	 1  ala 	 1.000000 
8541 	 C 	 33.316105 	 36.921517 	 56.177971 	 C 	 1  ala 	 1.000000 
8542 	 C 	 32.595014 	 37.467485 	 55.751418 	 C 	 1  ala 	 1.000000 
8543 	 C 	 32.993376 	 37.819007 	 54.904223 	 C 	 1  ala 	 1.000000 
8544 	 C 	 32.952360 	 38.530295 	 55.605926 	 C 	 1  ala 	 1.000000 
8545 	 C 	 32.334688 	 37.755547 	 55.741009 	 C 	 1  ala 	 1.000000 
8546 	 C 	 32.620393 	 38.246702 	 54.918123 	 C 	 1  ala 	 1.000000 
8547 	 C 	 32.407680 	 37.690439 	 54.114803 	 C 	 1  ala 	 1.000000 
8548 	 C 	 32.596136 	 38.143320 	 54.986228 	 C 	 1  ala 	 1.000000 
8549 	 C 	 32.692076 	 38.050297 	 55.977259 	 C 	 1  ala 	 1.000000 
8550 	 N 	 32.943786 	 37.990107 	 56.943189 	 N 	 1  ala 	 1.000000 
8551 	 C 	 32.857806 	 38.913903 	 56.570083 	 C 	 1  ala 	 1.000000 
8552 	 C 	 32.252291 	 38.191841 	 56.904713 	 C 	 1  ala 	 1.000000 
8553 	 C 	 32.356546 	 37.409929 	 57.519323 	 C 	 1  ala 	 1.000000 
8554 	 C 	 31.506857 	 37.665471 	 57.980546 	 C 	 1  ala 	 1.000000 
8555 	 C 	 31.264825 	 38.356583 	 58.661563 	 C 	 1  ala 	 1.000000 
8556 	 C 	 31.442509 	 38.081269 	 57.716772 	 C 	 1  ala 	 1.000000 
8557 	 C 	 30.813902 	 37.457400 	 58.181143 	 C 	 1  ala 	 1.000000 
8558 	 C 	 30.208349 	 36.663935 	 58.242123 	 C 	 1  ala 	 1.000000 
8559 	 C 	 31.077656 	 36.621991 	 57.749635 	 C 	 1  ala 	 1.000000 
8560 	 C 	 30.354017 	 35.948848 	 57.597236 	 C 	 1  ala 	 1.000000 
8561 	 C 	 29.925172 	 35.829854 	 56.701730 	 C 	 1  ala 	 1.000000 
8562 	 C 	 30.160936 	 36.794253 	 56.821526 	 C 	 1  ala 	 1.000000 
8563 	 C 	 30.901525 	 36.484667 	 57.417919 	 C 	 1  ala 	 1.000000 
8564 	 C 	 31.856156 	 36.342145 	 57.679391 	 C 	 1  ala 	 1.000000 
8565 	 C 	 31.293272 	 35.546705 	 57.903975 	 C 	 1  ala 	 1.000000 
8566 	 C 	 30.823522 	 35.291359 	 58.749039 	 C 	 1  ala 	 1.000000 
8567 	 C 	 31.475972 	 34.566313 	 58.969532 	 C 	 1  ala 	 1.000000 
8568 	 C 	 31.941627 	 33.696698 	 59.133650 	 C 	 1  ala 	 1.000000 
8569 	 C 	 31.982955 	 34.425184 	 59.817463 	 C 	 1  ala 	 1.000000 
8570 	 C 	 31.183924 	 33.824790 	 59.784660 	 C 	 1  ala 	 1.000000 
8571 	 C 	 30.912513 	 33.011227 	 59.270412 	 C 	 1  ala 	 1.000000 
8572 	 C 	 30.490381 	 33.047139 	 58.364589 	 C 	 1  ala 	 1.000000 
8573 	 C 	 29.612151 	 32.894214 	 57.911460 	 C 	 1  ala 	 1.000000 
8574 	 C 	 29.508854 	 33.782224 	 58.359530 	 C 	 1  ala 	 1.000000 
8575 	 C 	 29.065929 	 33.934374 	 59.243085 	 C 	 1  ala 	 1.000000 
8576 	 C 	 28.948393 	 34.565956 	 58.476737 	 C 	 1  ala 	 1.000000 
8577 	 C 	 29.452073 	 34.001382 	 59.130619 	 C 	 1  ala 	 1.000000 
8578 	 C 	 29.459625 	 33.991676 	 58.130695 	 C 	 1  ala 	 1.000000 
8579 	 C 	 29.096318 	 34.377101 	 57.282487 	 C 	 1  ala 	 1.000000 
8580 	 C 	 28.380063 	 34.865431 	 57.780998 	 C 	 1  ala 	 1.000000 
8581 	 C 	 27.775328 	 35.480810 	 58.286571 	 C 	 1  ala 	 1.000000 
8582 	 C 	 27.723606 	 36.424727 	 58.612677 	 C 	 1  ala 	 1.000000 
8583 	 C 	 27.279901 	 35.855228 	 57.920726 	 C 	 1  ala 	 1.000000 
8584 	 C 	 26.868035 	 35.813744 	 58.831026 	 C 	 1  ala 	 1.000000 
8585 	 C 	 26.913859 	 36.592759 	 59.456354 	 C 	 1  ala 	 1.000000 
8586 	 C 	 26.289767 	 36.417698 	 60.217842 	 C 	 1  ala 	 1.000000 
8587 	 C 	 26.833951 	 35.934041 	 59.532320 	 C 	 1  ala 	 1.000000 
8588 	 C 	 26.903665 	 35.182102 	 58.876784 	 C 	 1  ala 	 1.000000 
8589 	 C 	 27.433635 	 35.282567 	 58.034740 	 C 	 1  ala 	 1.000000 
8590 	 C 	 28.390264 	 35.007630 	 58.131021 	 C 	 1  ala 	 1.000000 
8591 	 C 	 28.184677 	 34.045708 	 58.311132 	 C 	 1  ala 	 1.000000 
8592 	 C 	 29.015594 	 34.180332 	 57.771268 	 C 	 1  ala 	 1.000000 
8593 	 C 	 28.591687 	 34.467409 	 56.912263 	 C 	 1  ala 	 1.000000 
8594 	 C 	 28.149378 	 34.760809 	 56.064749 	 C 	 1  ala 	 1.000000 
8595 	 C 	 28.215775 	 35.076921 	 57.011144 	 C 	 1  ala 	 1.000000 
8596 	 C 	 27.490970 	 34.869625 	 57.668173 	 C 	 1  ala 	 1.000000 
8597 	 C 	 26.595903 	 35.264662 	 57.875055 	 C 	 1  ala 	 1.000000 
8598 	 C 	 27.591365 	 35.229752 	 57.963578 	 C 	 1  ala 	 1.000000 
8599 	 C 	 27.960534 	 36.146309 	 58.117323 	 C 	 1  ala 	 1.000000 
8600 	 C 	 27.923773 	 35.213942 	 58.476963 	 C 	 1  ala 	 1.000000 
8601 	 C 	 28.282635 	 36.012949 	 58.959463 	 C 	 1  ala 	 1.000000 
8602 	 C 	 27.621942 	 36.748096 	 58.807667 	 C 	 1  ala 	 1.000000 
8603 	 C 	 26.793495 	 36.257678 	 58.537175 	 C 	 1  ala 	 1.000000 
8604 	 C 	 26.250268 	 37.096958 	 58.559825 	 C 	 1  ala 	 1.000000 
8605 	 C 	 26.930518 	 37.708049 	 58.964583 	 C 	 1  ala 	 1.000000 
8606 	 C 	 26.987392 	 37.815293 	 57.971978 	 C 	 1  ala 	 1.000000 
8607 	 C 	 26.039310 	 38.106477 	 57.844107 	 C 	 1  ala 	 1.000000 
8608 	 C 	 25.471945 	 37.801337 	 58.608952 	 C 	 1  ala 	 1.000000 
8609 	 C 	 26.117569 	 37.730204 	 59.369287 	 C 	 1  ala 	 1.000000 
8610 	 C 	 25.509366 	 37.233504 	 59.988463 	 C 	 1  ala 	 1.000000 
8611 	 C 	 25.301131 	 37.803082 	 59.193341 	 C 	 1  ala 	 1.000000 
8612 	 C 	 25.320399 	 36.803420 	 59.175844 	 C 	 1  ala 	 1.000000 
8613 	 C 	 24.495520 	 37.240832 	 58.817729 	 C 	 1  ala 	 1.000000 
8614 	 C 	 25.174434 	 36.506625 	 58.821540 	 C 	 1  ala 	 1.000000 
8615 	 C 	 26.091255 	 36.149409 	 58.999966 	 C 	 1  ala 	 1.000000 
8616 	 C 	 26.134010 	 35.743164 	 59.912729 	 C 	 1  ala 	 1.000000 
8617 	 C 	 26.821201 	 36.431585 	 60.144775 	 C 	 1  ala 	 1.000000 
8618 	 C 	 25.889949 	 36.511419 	 59.789252 	 C 	 1  ala 	 1.000000 
8619 	 C 	 26.589933 	 37.215939 	 59.906183 	 C 	 1  ala 	 1.000000 
8620 	 C 	 26.914148 	 37.143821 	 58.962952 	 C 	 1  ala 	 1.000000 
8621 	 C 	 27.244441 	 36.200604 	 58.998276 	 C 	 1  ala 	 1.000000 
8622 	 C 	 27.657134 	 36.653208 	 59.788741 	 C 	 1  ala 	 1.000000 
8623 	 C 	 28.368901 	 36.037391 	 59.450870 	 C 	 1  ala 	 1.000000 
8624 	 C 	 27.802277 	 35.951887 	 60.270398 	 C 	 1  ala 	 1.000000 
8625 	 C 	 28.421353 	 35.172574 	 60.367433 	 C 	 1  ala 	 1.000000 
8626 	 C 	 28.355370 	 35.473519 	 59.416077 	 C 	 1  ala 	 1.000000 
8627 	 C 	 29.276166 	 35.791801 	 59.641533 	 C 	 1  ala 	 1.000000 
8628 	 C 	 29.535442 	 35.770005 	 60.607090 	 C 	 1  ala 	 1.000000 
8629 	 C 	 29.395900 	 36.103001 	 59.674544 	 C 	 1  ala 	 1.000000 
8630 	 C 	 30.363494 	 36.040927 	 59.429783 	 C 	 1  ala 	 1.000000 
8631 	 C 	 30.933822 	 36.481125 	 58.736276 	 C 	 1  ala 	 1.000000 
8632 	 C 	 30.051405 	 36.339664 	 58.287578 	 C 	 1  ala 	 1.000000 
8633 	 C 	 30.043146 	 35.425845 	 58.693616 	 C 	 1  ala 	 1.000000 
8634 	 C 	 29.149222 	 35.020360 	 58.884617 	 C 	 1  ala 	 1.000000 
8635 	 C 	 28.432400 	 34.372089 	 59.141348 	 C 	 1  ala 	 1.000000 
8636 	 C 	 29.299103 	 33.954252 	 58.868881 	 C 	 1  ala 	 1.000000 
8637 	 C 	 29.962931 	 33.214451 	 58.759216 	 C 	 1  ala 	 1.000000 
8638 	 C 	 30.661518 	 33.777336 	 59.200958 	 C 	 1  ala 	 1.000000 
8639 	 C 	 30.244111 	 32.890277 	 59.398183 	 C 	 1  ala 	 1.000000 
8640 	 C 	 29.646098 	 33.571401 	 58.975748 	 C 	 1  ala 	 1.000000 
8641 	 C 	 30.171274 	 33.818000 	 58.161268 	 C 	 1  ala 	 1.000000 
8642 	 C 	 31.111958 	 33.860402 	 57.824643 	 C 	 1  ala 	 1.000000 
8643 	 C 	 31.205021 	 33.291366 	 57.007613 	 C 	 1  ala 	 1.000000 
8644 	 C 	 30.264725 	 33.188202 	 57.331958 	 C 	 1  ala 	 1.000000 
8645 	 C 	 30.662739 	 33.393026 	 56.437737 	 C 	 1  ala 	 1.000000 
8646 	 C 	 30.790054 	 33.951248 	 57.257602 	 C 	 1  ala 	 1.000000 
8647 	 C 	 30.019107 	 34.073555 	 57.882648 	 C 	 1  ala 	 1.000000 
8648 	 C 	 29.915403 	 34.936638 	 58.376948 	 C 	 1  ala 	 1.000000 
8649 	 C 	 30.153394 	 34.742023 	 57.425378 	 C 	 1  ala 	 1.000000 
8650 	 C 	 29.418414 	 35.332020 	 57.759605 	 C 	 1  ala 	 1.000000 
8651 	 C 	 30.317898 	 35.196823 	 57.344093 	 C 	 1  ala 	 1.000000 
8652 	 C 	 29.352379 	 34.936501 	 57.341718 	 C 	 1  ala 	 1.000000 
8653 	 C 	 29.462199 	 35.681892 	 56.684199 	 C 	 1  ala 	 1.000000 
8654 	 C 	 30.053504 	 35.040451 	 56.195413 	 C 	 1  ala 	 1.000000 
8655 	 C 	 30.734092 	 35.483212 	 55.611664 	 C 	 1  ala 	 1.000000 
8656 	 C 	 30.985849 	 36.446125 	 55.514626 	 C 	 1  ala 	 1.000000 
8657 	 C 	 31.011160 	 37.364960 	 55.908456 	 C 	 1  ala 	 1.000000 
8658 	 C 	 30.462912 	 36.528648 	 55.905757 	 C 	 1  ala 	 1.000000 
8659 	 C 	 31.045608 	 36.505322 	 56.718111 	 C 	 1  ala 	 1.000000 
8660 	 C 	 31.625963 	 36.984475 	 56.059628 	 C 	 1  ala 	 1.000000 
8661 	 C 	 32.300101 	 36.291403 	 55.804307 	 C 	 1  ala 	 1.000000 
8662 	 C 	 32.165491 	 36.846006 	 56.625462 	 C 	 1  ala 	 1.000000 
8663 	 C 	 32.782214 	 37.633045 	 56.640338 	 C 	 1  ala 	 1.000000 
8664 	 C 	 32.666651 	 38.143059 	 57.492706 	 C 	 1  ala 	 1.000000 
8665 	 C 	 31.966622 	 37.615860 	 57.974391 	 C 	 1  ala 	 1.000000 
8666 	 C 	 31.323373 	 36.882766 	 58.195310 	 C 	 1  ala 	 1.000000 
8667 	 C 	 31.406346 	 36.220882 	 57.450310 	 C 	 1  ala 	 1.000000 
8668 	 C 	 30.549581 	 36.576765 	 57.823539 	 C 	 1  ala 	 1.000000 
8669 	 C 	 31.009825 	 37.315789 	 57.331585 	 C 	 1  ala 	 1.000000 
8670 	 C 	 30.799642 	 37.044915 	 58.270974 	 C 	 1  ala 	 1.000000 
8671 	 C 	 30.255998 	 37.344794 	 59.054889 	 C 	 1  ala 	 1.000000 
8672 	 C 	 30.846452 	 36.547746 	 59.181688 	 C 	 1  ala 	 1.000000 
8673 	 C 	 30.468979 	 35.890447 	 59.833970 	 C 	 1  ala 	 1.000000 
8674 	 C 	 30.904887 	 35.288669 	 60.503184 	 C 	 1  ala 	 1.000000 
8675 	 C 	 31.293954 	 34.732665 	 59.768686 	 C 	 1  ala 	 1.000000 
8676 	 C 	 31.822916 	 34.042527 	 60.262556 	 C 	 1  ala 	 1.000000 
8677 	 C 	 32.786870 	 34.078743 	 59.998967 	 C 	 1  ala 	 1.000000 
8678 	 C 	 33.442241 	 34.786204 	 59.734412 	 C 	 1  ala 	 1.000000 
8679 	 C 	 34.397630 	 35.034377 	 59.574282 	 C 	 1  ala 	 1.000000 
8680 	 C 	 35.136793 	 35.422822 	 60.124508 	 C 	 1  ala 	 1.000000 
8681 	 C 	 35.222074 	 36.141919 	 60.814164 	 C 	 1  ala 	 1.000000 
8682 	 C 	 35.271713 	 36.862838 	 61.505404 	 C 	 1  ala 	 1.000000 
8683 	 C 	 35.421929 	 35.885087 	 61.651826 	 C 	 1  ala 	 1.000000 
8684 	 C 	 34.554178 	 35.566833 	 61.270090 	 C 	 1  ala 	 1.000000 
8685 	 C 	 34.662230 	 34.816575 	 60.617835 	 C 	 1  ala 	 1.000000 
8686 	 C 	 35.215705 	 35.229961 	 59.894801 	 C 	 1  ala 	 1.000000 
8687 	 C 	 36.010954 	 34.635439 	 60.013643 	 C 	 1  ala 	 1.000000 
8688 	 C 	 36.376323 	 34.525295 	 60.937966 	 C 	 1  ala 	 1.000000 
8689 	 C 	 35.981152 	 33.865017 	 60.299316 	 C 	 1  ala 	 1.000000 
8690 	 C 	 36.907203 	 33.587791 	 60.555392 	 C 	 1  ala 	 1.000000 
8691 	 C 	 37.825621 	 33.550516 	 60.949243 	 C 	 1  ala 	 1.000000 
8692 	 C 	 38.094563 	 33.406377 	 59.996933 	 C 	 1  ala 	 1.000000 
8693 	 C 	 37.455084 	 32.699615 	 59.694353 	 C 	 1  ala 	 1.000000 
8694 	 C 	 38.037629 	 32.932089 	 60.473197 	 C 	 1  ala 	 1.000000 
8695 	 C 	 38.613351 	 32.115774 	 60.426565 	 C 	 1  ala 	 1.000000 
8696 	 C 	 38.508470 	 31.362829 	 61.076236 	 C 	 1  ala 	 1.000000 
8697 	 C 	 38.870880 	 31.990150 	 60.386942 	 C 	 1  ala 	 1.000000 
8698 	 C 	 39.002971 	 31.879123 	 59.401942 	 C 	 1  ala 	 1.000000 
8699 	 C 	 39.312318 	 32.760031 	 59.043744 	 C 	 1  ala 	 1.000000 
8700 	 C 	 39.964052 	 32.858507 	 59.795772 	 C 	 1  ala 	 1.000000 
8701 	 C 	 39.328316 	 32.253802 	 60.275533 	 C 	 1  ala 	 1.000000 
8702 	 C 	 39.370049 	 32.486462 	 61.247195 	 C 	 1  ala 	 1.000000 
8703 	 C 	 39.735949 	 31.599181 	 60.966394 	 C 	 1  ala 	 1.000000 
8704 	 C 	 39.476782 	 31.986811 	 60.081760 	 C 	 1  ala 	 1.000000 
8705 	 C 	 40.209331 	 32.527976 	 60.494692 	 C 	 1  ala 	 1.000000 
8706 	 C 	 39.266961 	 32.207430 	 60.398834 	 C 	 1  ala 	 1.000000 
8707 	 C 	 39.781060 	 32.645867 	 61.136042 	 C 	 1  ala 	 1.000000 
8708 	 C 	 39.550357 	 31.686468 	 60.973775 	 C 	 1  ala 	 1.000000 
8709 	 C 	 40.089272 	 30.872087 	 60.758474 	 C 	 1  ala 	 1.000000 
8710 	 C 	 39.276220 	 31.373474 	 60.462574 	 C 	 1  ala 	 1.000000 
8711 	 C 	 38.769112 	 31.266166 	 61.317750 	 C 	 1  ala 	 1.000000 
8712 	 C 	 38.928093 	 30.327255 	 61.012510 	 C 	 1  ala 	 1.000000 
8713 	 C 	 38.480612 	 29.713033 	 60.362516 	 C 	 1  ala 	 1.000000 
8714 	 C 	 37.819094 	 30.136153 	 60.981680 	 C 	 1  ala 	 1.000000 
8715 	 C 	 37.187321 	 29.376396 	 61.135407 	 C 	 1  ala 	 1.000000 
8716 	 C 	 36.882639 	 28.802943 	 61.895881 	 C 	 1  ala 	 1.000000 
8717 	 C 	 36.219916 	 28.174771 	 61.488208 	 C 	 1  ala 	 1.000000 
8718 	 C 	 36.370936 	 28.838083 	 60.755263 	 C 	 1  ala 	 1.000000 
8719 	 C 	 36.131179 	 28.034450 	 60.210571 	 C 	 1  ala 	 1.000000 
8720 	 C 	 35.917614 	 28.796611 	 59.599425 	 C 	 1  ala 	 1.000000 
8721 	 C 	 35.680000 	 27.994702 	 59.051264 	 C 	 1  ala 	 1.000000 
8722 	 C 	 35.219344 	 28.371859 	 58.247804 	 C 	 1  ala 	 1.000000 
8723 	 C 	 35.660492 	 27.886841 	 59.002884 	 C 	 1  ala 	 1.000000 
8724 	 C 	 35.979076 	 28.387499 	 59.807772 	 C 	 1  ala 	 1.000000 
8725 	 C 	 35.293069 	 29.100972 	 59.950429 	 C 	 1  ala 	 1.000000 
8726 	 C 	 34.454291 	 29.129250 	 60.494167 	 C 	 1  ala 	 1.000000 
8727 	 C 	 34.713182 	 28.849425 	 59.569682 	 C 	 1  ala 	 1.000000 
8728 	 C 	 35.324429 	 28.330973 	 58.971699 	 C 	 1  ala 	 1.000000 
8729 	 C 	 34.443348 	 27.898076 	 59.162212 	 C 	 1  ala 	 1.000000 
8730 	 C 	 34.753358 	 27.540570 	 58.281256 	 C 	 1  ala 	 1.000000 
8731 	 C 	 34.017741 	 28.113625 	 58.642471 	 C 	 1  ala 	 1.000000 
8732 	 C 	 33.258861 	 28.282237 	 59.271495 	 C 	 1  ala 	 1.000000 
8733 	 C 	 32.611302 	 28.029821 	 58.552500 	 C 	 1  ala 	 1.000000 
8734 	 C 	 32.500715 	 28.999017 	 58.772566 	 C 	 1  ala 	 1.000000 
8735 	 C 	 32.802881 	 29.930105 	 58.568185 	 C 	 1  ala 	 1.000000 
8736 	 C 	 32.211706 	 30.044896 	 57.769852 	 C 	 1  ala 	 1.000000 
8737 	 C 	 32.691999 	 30.887707 	 58.012725 	 C 	 1  ala 	 1.000000 
8738 	 C 	 33.539325 	 30.606421 	 57.562262 	 C 	 1  ala 	 1.000000 
8739 	 C 	 33.156634 	 30.816785 	 58.461870 	 C 	 1  ala 	 1.000000 
8740 	 C 	 33.178816 	 30.590158 	 57.488141 	 C 	 1  ala 	 1.000000 
8741 	 C 	 33.888959 	 30.347266 	 56.827307 	 C 	 1  ala 	 1.000000 
8742 	 C 	 34.390586 	 29.620245 	 57.296146 	 C 	 1  ala 	 1.000000 
8743 	 C 	 33.751932 	 30.295576 	 56.927300 	 C 	 1  ala 	 1.000000 
8744 	 C 	 34.432799 	 30.285213 	 57.659634 	 C 	 1  ala 	 1.000000 
8745 	 C 	 34.479691 	 31.189931 	 57.236211 	 C 	 1  ala 	 1.000000 
8746 	 C 	 34.654970 	 30.376517 	 56.681562 	 C 	 1  ala 	 1.000000 
8747 	 C 	 34.462820 	 31.349693 	 56.808080 	 C 	 1  ala 	 1.000000 
8748 	 C 	 35.073974 	 31.119994 	 57.565529 	 C 	 1  ala 	 1.000000 
8749 	 C 	 35.965031 	 31.475692 	 57.283579 	 C 	 1  ala 	 1.000000 
8750 	 C 	 35.074525 	 31.502789 	 57.737741 	 C 	 1  ala 	 1.000000 
8751 	 C 	 35.855605 	 32.124115 	 57.799928 	 C 	 1  ala 	 1.000000 
8752 	 C 	 36.155941 	 32.186450 	 58.751722 	 C 	 1  ala 	 1.000000 
8753 	 C 	 36.491934 	 32.439061 	 59.659079 	 C 	 1  ala 	 1.000000 
8754 	 C 	 36.485388 	 32.900325 	 58.771840 	 C 	 1  ala 	 1.000000 
8755 	 C 	 35.994866 	 32.295480 	 58.144504 	 C 	 1  ala 	 1.000000 
8756 	 C 	 36.004066 	 31.307746 	 58.300380 	 C 	 1  ala 	 1.000000 
8757 	 C 	 36.816629 	 30.738068 	 58.177052 	 C 	 1  ala 	 1.000000 
8758 	 C 	 36.835795 	 30.767296 	 57.177663 	 C 	 1  ala 	 1.000000 
8759 	 C 	 36.956626 	 30.649428 	 58.163314 	 C 	 1  ala 	 1.000000 
8760 	 C 	 36.255721 	 31.282428 	 58.492012 	 C 	 1  ala 	 1.000000 
8761 	 C 	 36.510726 	 30.749198 	 57.685391 	 C 	 1  ala 	 1.000000 
8762 	 C 	 35.970983 	 30.281189 	 58.385137 	 C 	 1  ala 	 1.000000 
8763 	 C 	 35.070340 	 30.427750 	 57.976039 	 C 	 1  ala 	 1.000000 
8764 	 C 	 34.513090 	 29.597466 	 57.986054 	 C 	 1  ala 	 1.000000 
8765 	 C 	 35.285830 	 29.548167 	 57.353249 	 C 	 1  ala 	 1.000000 
8766 	 C 	 35.930523 	 30.129553 	 57.849596 	 C 	 1  ala 	 1.000000 
8767 	 C 	 36.299178 	 30.871311 	 58.409854 	 C 	 1  ala 	 1.000000 
8768 	 C 	 36.624096 	 30.313359 	 59.173475 	 C 	 1  ala 	 1.000000 
8769 	 C 	 36.022287 	 29.523098 	 59.058090 	 C 	 1  ala 	 1.000000 
8770 	 C 	 36.205913 	 30.504757 	 59.109337 	 C 	 1  ala 	 1.000000 
8771 	 C 	 35.411171 	 30.460422 	 59.714663 	 C 	 1  ala 	 1.000000 
8772 	 C 	 35.316662 	 30.057521 	 58.804312 	 C 	 1  ala 	 1.000000 
8773 	 C 	 35.987823 	 30.763169 	 59.031475 	 C 	 1  ala 	 1.000000 
8774 	 C 	 35.109121 	 30.481678 	 58.645930 	 C 	 1  ala 	 1.000000 
8775 	 C 	 35.327498 	 30.728362 	 59.590101 	 C 	 1  ala 	 1.000000 
8776 	 C 	 34.787539 	 31.335059 	 59.006694 	 C 	 1  ala 	 1.000000 
8777 	 C 	 35.035050 	 31.855374 	 58.189375 	 C 	 1  ala 	 1.000000 
8778 	 C 	 35.294354 	 32.716622 	 57.752325 	 C 	 1  ala 	 1.000000 
8779 	 C 	 35.819140 	 32.244843 	 58.460861 	 C 	 1  ala 	 1.000000 
8780 	 C 	 35.869029 	 33.024439 	 59.085155 	 C 	 1  ala 	 1.000000 
8781 	 C 	 34.927265 	 33.307858 	 58.904175 	 C 	 1  ala 	 1.000000 
8782 	 C 	 35.294723 	 34.215397 	 58.700833 	 C 	 1  ala 	 1.000000 
8783 	 C 	 34.609033 	 33.739625 	 59.251714 	 C 	 1  ala 	 1.000000 
8784 	 C 	 34.884976 	 32.821419 	 59.535886 	 C 	 1  ala 	 1.000000 
8785 	 C 	 34.054203 	 33.197973 	 59.125979 	 C 	 1  ala 	 1.000000 
8786 	 C 	 34.338387 	 33.898078 	 59.781030 	 C 	 1  ala 	 1.000000 
8787 	 C 	 34.517597 	 34.034523 	 58.806727 	 C 	 1  ala 	 1.000000 
8788 	 C 	 34.028722 	 34.897925 	 58.931376 	 C 	 1  ala 	 1.000000 
8789 	 C 	 34.721108 	 34.208579 	 58.718297 	 C 	 1  ala 	 1.000000 
8790 	 C 	 34.339351 	 35.108535 	 58.507725 	 C 	 1  ala 	 1.000000 
8791 	 C 	 34.791470 	 34.970439 	 57.626522 	 C 	 1  ala 	 1.000000 
8792 	 C 	 35.658812 	 34.485070 	 57.516365 	 C 	 1  ala 	 1.000000 
8793 	 C 	 35.561332 	 34.134620 	 56.584870 	 C 	 1  ala 	 1.000000 
8794 	 C 	 35.969064 	 34.728552 	 57.278411 	 C 	 1  ala 	 1.000000 
8795 	 C 	 36.770804 	 34.513774 	 56.720663 	 C 	 1  ala 	 1.000000 
8796 	 C 	 36.767231 	 35.480709 	 56.975658 	 C 	 1  ala 	 1.000000 
8797 	 C 	 36.919848 	 34.594058 	 56.539129 	 C 	 1  ala 	 1.000000 
8798 	 C 	 37.289920 	 33.710558 	 56.251947 	 C 	 1  ala 	 1.000000 
8799 	 C 	 38.238110 	 33.812890 	 55.951174 	 C 	 1  ala 	 1.000000 
8800 	 C 	 38.967328 	 34.354644 	 55.533150 	 C 	 1  ala 	 1.000000 
8801 	 C 	 39.740341 	 34.818499 	 55.100381 	 C 	 1  ala 	 1.000000 
8802 	 C 	 38.909946 	 35.207406 	 55.499376 	 C 	 1  ala 	 1.000000 
8803 	 C 	 38.997072 	 36.202348 	 55.549371 	 C 	 1  ala 	 1.000000 
8804 	 C 	 39.150422 	 35.856633 	 54.623647 	 C 	 1  ala 	 1.000000 
8805 	 C 	 40.117997 	 35.930713 	 54.382171 	 C 	 1  ala 	 1.000000 
8806 	 C 	 39.844729 	 35.437405 	 53.556355 	 C 	 1  ala 	 1.000000 
8807 	 C 	 40.057644 	 35.062966 	 54.458831 	 C 	 1  ala 	 1.000000 
8808 	 C 	 40.778015 	 34.503603 	 54.868927 	 C 	 1  ala 	 1.000000 
8809 	 C 	 40.079086 	 35.199228 	 54.702780 	 C 	 1  ala 	 1.000000 
8810 	 C 	 39.395605 	 35.141288 	 53.975115 	 C 	 1  ala 	 1.000000 
8811 	 C 	 38.678672 	 34.557584 	 53.593936 	 C 	 1  ala 	 1.000000 
8812 	 C 	 38.131484 	 34.029642 	 52.944427 	 C 	 1  ala 	 1.000000 
8813 	 C 	 38.875705 	 33.492187 	 53.341008 	 C 	 1  ala 	 1.000000 
8814 	 C 	 38.029719 	 33.384630 	 52.818764 	 C 	 1  ala 	 1.000000 
8815 	 C 	 37.833079 	 33.319359 	 53.797065 	 C 	 1  ala 	 1.000000 
8816 	 C 	 37.639894 	 32.465496 	 54.280385 	 C 	 1  ala 	 1.000000 
8817 	 C 	 37.415115 	 33.203138 	 54.917063 	 C 	 1  ala 	 1.000000 
8818 	 C 	 37.800962 	 32.797314 	 55.745574 	 C 	 1  ala 	 1.000000 
8819 	 C 	 37.404105 	 31.887412 	 55.624812 	 C 	 1  ala 	 1.000000 
8820 	 C 	 37.336062 	 32.885005 	 55.638147 	 C 	 1  ala 	 1.000000 
8821 	 C 	 37.804010 	 32.547297 	 56.454834 	 C 	 1  ala 	 1.000000 
8822 	 C 	 38.750751 	 32.483898 	 56.139140 	 C 	 1  ala 	 1.000000 
8823 	 C 	 39.743489 	 32.508670 	 56.021417 	 C 	 1  ala 	 1.000000 
8824 	 C 	 39.880345 	 33.107029 	 56.810871 	 C 	 1  ala 	 1.000000 
8825 	 C 	 39.855894 	 32.313846 	 56.202378 	 C 	 1  ala 	 1.000000 
8826 	 C 	 39.706636 	 31.785441 	 55.366609 	 C 	 1  ala 	 1.000000 
8827 	 C 	 39.026543 	 31.917311 	 54.645440 	 C 	 1  ala 	 1.000000 
8828 	 C 	 39.830344 	 31.913512 	 54.050555 	 C 	 1  ala 	 1.000000 
8829 	 C 	 39.949837 	 32.012001 	 55.038493 	 C 	 1  ala 	 1.000000 
8830 	 C 	 39.467640 	 32.746036 	 54.560290 	 C 	 1  ala 	 1.000000 
8831 	 C 	 38.609708 	 32.877407 	 55.056973 	 C 	 1  ala 	 1.000000 
8832 	 C 	 38.773846 	 33.863817 	 55.049633 	 C 	 1  ala 	 1.000000 
8833 	 C 	 39.239154 	 34.748615 	 55.074565 	 C 	 1  ala 	 1.000000 
8834 	 C 	 39.094005 	 35.717261 	 54.872933 	 C 	 1  ala 	 1.000000 
8835 	 C 	 38.917447 	 36.164883 	 53.996313 	 C 	 1  ala 	 1.000000 
8836 	 C 	 38.514225 	 35.267057 	 54.173290 	 C 	 1  ala 	 1.000000 
8837 	 C 	 38.738503 	 36.153503 	 53.768429 	 C 	 1  ala 	 1.000000 
8838 	 C 	 39.408228 	 36.869947 	 53.963817 	 C 	 1  ala 	 1.000000 
8839 	 C 	 39.017834 	 37.666370 	 54.425664 	 C 	 1  ala 	 1.000000 
8840 	 C 	 39.942734 	 38.016491 	 54.277422 	 C 	 1  ala 	 1.000000 
8841 	 C 	 40.851283 	 37.679711 	 54.030201 	 C 	 1  ala 	 1.000000 
8842 	 C 	 41.117097 	 36.747944 	 53.782910 	 C 	 1  ala 	 1.000000 
8843 	 C 	 41.124098 	 37.414594 	 54.528248 	 C 	 1  ala 	 1.000000 
8844 	 C 	 40.142979 	 37.607638 	 54.516393 	 C 	 1  ala 	 1.000000 
8845 	 C 	 39.248373 	 37.947052 	 54.225743 	 C 	 1  ala 	 1.000000 
8846 	 C 	 38.879678 	 38.757980 	 53.771364 	 C 	 1  ala 	 1.000000 
8847 	 C 	 39.432086 	 38.304364 	 53.072022 	 C 	 1  ala 	 1.000000 
8848 	 C 	 39.358888 	 39.187135 	 53.536089 	 C 	 1  ala 	 1.000000 
8849 	 C 	 39.567272 	 38.248964 	 53.812513 	 C 	 1  ala 	 1.000000 
8850 	 C 	 38.892709 	 38.210623 	 53.075292 	 C 	 1  ala 	 1.000000 
8851 	 C 	 39.562916 	 37.675393 	 53.589444 	 C 	 1  ala 	 1.000000 
8852 	 C 	 39.696988 	 37.425557 	 52.630483 	 C 	 1  ala 	 1.000000 
8853 	 C 	 38.933696 	 38.070388 	 52.590751 	 C 	 1  ala 	 1.000000 
8854 	 C 	 38.897309 	 38.396156 	 51.646002 	 C 	 1  ala 	 1.000000 
8855 	 C 	 39.858423 	 38.121098 	 51.670536 	 C 	 1  ala 	 1.000000 
8856 	 C 	 40.180582 	 39.019542 	 51.968883 	 C 	 1  ala 	 1.000000 
8857 	 C 	 40.378736 	 39.086920 	 52.946736 	 C 	 1  ala 	 1.000000 
8858 	 C 	 39.559924 	 38.513527 	 52.974422 	 C 	 1  ala 	 1.000000 
8859 	 C 	 38.930142 	 37.959450 	 53.518824 	 C 	 1  ala 	 1.000000 
8860 	 C 	 38.382132 	 38.532746 	 52.909713 	 C 	 1  ala 	 1.000000 
8861 	 C 	 38.252416 	 39.498234 	 53.135559 	 C 	 1  ala 	 1.000000 
8862 	 C 	 38.591856 	 39.584206 	 54.072249 	 C 	 1  ala 	 1.000000 
8863 	 C 	 39.295598 	 40.281116 	 53.934177 	 C 	 1  ala 	 1.000000 
8864 	 C 	 39.188547 	 40.332651 	 52.941260 	 C 	 1  ala 	 1.000000 
8865 	 C 	 39.947456 	 40.571502 	 52.335450 	 C 	 1  ala 	 1.000000 
8866 	 C 	 40.206478 	 40.255115 	 51.422867 	 C 	 1  ala 	 1.000000 
8867 	 C 	 39.397283 	 39.667687 	 51.434303 	 C 	 1  ala 	 1.000000 
8868 	 C 	 38.465732 	 39.424149 	 51.164298 	 C 	 1  ala 	 1.000000 
8869 	 C 	 37.832098 	 39.283701 	 51.925076 	 C 	 1  ala 	 1.000000 
8870 	 C 	 37.259102 	 40.066458 	 52.167909 	 C 	 1  ala 	 1.000000 
8871 	 C 	 37.845957 	 40.747731 	 52.605480 	 C 	 1  ala 	 1.000000 
8872 	 C 	 38.570194 	 40.418566 	 53.211393 	 C 	 1  ala 	 1.000000 
8873 	 C 	 37.722400 	 39.888256 	 53.207535 	 C 	 1  ala 	 1.000000 
8874 	 C 	 36.937677 	 40.216448 	 53.733368 	 C 	 1  ala 	 1.000000 
8875 	 C 	 37.306656 	 40.809267 	 54.449203 	 C 	 1  ala 	 1.000000 
8876 	 C 	 36.529959 	 41.124495 	 53.903884 	 C 	 1  ala 	 1.000000 
8877 	 C 	 35.922085 	 41.112153 	 54.697821 	 C 	 1  ala 	 1.000000 
8878 	 C 	 35.753163 	 40.127891 	 54.749729 	 C 	 1  ala 	 1.000000 
8879 	 C 	 35.642047 	 39.901264 	 53.782107 	 C 	 1  ala 	 1.000000 
8880 	 C 	 36.146522 	 39.864633 	 54.644756 	 C 	 1  ala 	 1.000000 
8881 	 C 	 35.229735 	 39.927621 	 55.039134 	 C 	 1  ala 	 1.000000 
8882 	 C 	 36.117155 	 39.614684 	 55.377595 	 C 	 1  ala 	 1.000000 
8883 	 C 	 35.454724 	 40.299549 	 55.681150 	 C 	 1  ala 	 1.000000 
8884 	 C 	 35.187986 	 40.161783 	 56.635022 	 C 	 1  ala 	 1.000000 
8885 	 C 	 36.166957 	 40.199811 	 56.434598 	 C 	 1  ala 	 1.000000 
8886 	 C 	 35.359437 	 40.333940 	 57.008985 	 C 	 1  ala 	 1.000000 
8887 	 C 	 34.442162 	 40.299481 	 56.612223 	 C 	 1  ala 	 1.000000 
8888 	 C 	 34.800448 	 40.236475 	 57.543707 	 C 	 1  ala 	 1.000000 
8889 	 C 	 35.782984 	 40.053555 	 57.577811 	 C 	 1  ala 	 1.000000 
8890 	 C 	 35.153568 	 40.515694 	 56.953100 	 C 	 1  ala 	 1.000000 
8891 	 C 	 34.947833 	 40.857681 	 57.870007 	 C 	 1  ala 	 1.000000 
8892 	 C 	 35.562409 	 40.968456 	 57.088966 	 C 	 1  ala 	 1.000000 
8893 	 C 	 35.237176 	 40.321430 	 56.399343 	 C 	 1  ala 	 1.000000 
8894 	 C 	 34.710928 	 39.499227 	 56.182445 	 C 	 1  ala 	 1.000000 
8895 	 C 	 33.979403 	 40.057189 	 56.574300 	 C 	 1  ala 	 1.000000 
8896 	 C 	 33.263474 	 40.754902 	 56.548962 	 C 	 1  ala 	 1.000000 
8897 	 C 	 34.173037 	 41.163421 	 56.472750 	 C 	 1  ala 	 1.000000 
8898 	 C 	 33.590145 	 40.503259 	 56.946483 	 C 	 1  ala 	 1.000000 
8899 	 C 	 32.974034 	 40.387680 	 56.167350 	 C 	 1  ala 	 1.000000 
8900 	 C 	 33.647232 	 40.054095 	 56.827293 	 C 	 1  ala 	 1.000000 
8901 	 C 	 33.022598 	 39.667985 	 56.148506 	 C 	 1  ala 	 1.000000 
8902 	 C 	 32.898171 	 40.555621 	 55.705086 	 C 	 1  ala 	 1.000000 
8903 	 C 	 32.578445 	 39.904581 	 56.393506 	 C 	 1  ala 	 1.000000 
8904 	 C 	 31.642729 	 39.857487 	 56.043912 	 C 	 1  ala 	 1.000000 
8905 	 C 	 31.834183 	 40.412810 	 55.234615 	 C 	 1  ala 	 1.000000 
8906 	 C 	 31.301846 	 40.997786 	 54.622716 	 C 	 1  ala 	 1.000000 
8907 	 C 	 30.341188 	 40.766855 	 54.468416 	 C 	 1  ala 	 1.000000 
8908 	 C 	 30.476878 	 40.284074 	 53.603251 	 C 	 1  ala 	 1.000000 
8909 	 C 	 30.108641 	 41.135353 	 53.977050 	 C 	 1  ala 	 1.000000 
8910 	 C 	 30.506876 	 40.616938 	 53.220310 	 C 	 1  ala 	 1.000000 
8911 	 C 	 30.659153 	 39.980361 	 52.464280 	 C 	 1  ala 	 1.000000 
8912 	 C 	 31.397441 	 39.511742 	 52.949386 	 C 	 1  ala 	 1.000000 
8913 	 C 	 31.144298 	 40.290591 	 53.523245 	 C 	 1  ala 	 1.000000 
8914 	 C 	 31.021023 	 40.930198 	 52.764492 	 C 	 1  ala 	 1.000000 
8915 	 C 	 31.822471 	 40.452805 	 53.124736 	 C 	 1  ala 	 1.000000 
8916 	 C 	 32.477575 	 41.149888 	 53.416137 	 C 	 1  ala 	 1.000000 
8917 	 C 	 32.998467 	 41.321023 	 52.579844 	 C 	 1  ala 	 1.000000 
8918 	 C 	 32.513178 	 40.516455 	 52.237550 	 C 	 1  ala 	 1.000000 
8919 	 C 	 32.239491 	 39.767441 	 51.634165 	 C 	 1  ala 	 1.000000 
8920 	 C 	 33.059164 	 40.217369 	 51.988708 	 C 	 1  ala 	 1.000000 
8921 	 C 	 33.312944 	 39.678938 	 52.792255 	 C 	 1  ala 	 1.000000 
8922 	 C 	 33.480803 	 40.143507 	 51.922774 	 C 	 1  ala 	 1.000000 
8923 	 C 	 33.822151 	 40.924166 	 52.446275 	 C 	 1  ala 	 1.000000 
8924 	 C 	 34.320641 	 41.382878 	 53.181864 	 C 	 1  ala 	 1.000000 
8925 	 C 	 35.277151 	 41.575508 	 52.962818 	 C 	 1  ala 	 1.000000 
8926 	 C 	 35.694244 	 42.472872 	 53.106941 	 C 	 1  ala 	 1.000000 
8927 	 C 	 36.413723 	 42.595847 	 53.790482 	 C 	 1  ala 	 1.000000 
8928 	 C 	 36.798543 	 42.547370 	 54.712200 	 C 	 1  ala 	 1.000000 
8929 	 C 	 36.297338 	 41.691732 	 54.583060 	 C 	 1  ala 	 1.000000 
8930 	 C 	 35.875039 	 41.550871 	 53.687615 	 C 	 1  ala 	 1.000000 
8931 	 C 	 35.926475 	 40.558992 	 53.571295 	 C 	 1  ala 	 1.000000 
8932 	 C 	 36.190327 	 41.373233 	 54.088396 	 C 	 1  ala 	 1.000000 
8933 	 C 	 36.900167 	 41.914786 	 53.638010 	 C 	 1  ala 	 1.000000 
8934 	 C 	 36.027971 	 42.250092 	 53.994162 	 C 	 1  ala 	 1.000000 
8935 	 C 	 35.589183 	 41.471059 	 53.546310 	 C 	 1  ala 	 1.000000 
8936 	 C 	 36.039990 	 41.313962 	 54.424998 	 C 	 1  ala 	 1.000000 
8937 	 C 	 35.726724 	 41.146001 	 55.359692 	 C 	 1  ala 	 1.000000 
8938 	 C 	 34.973315 	 41.021720 	 54.713991 	 C 	 1  ala 	 1.000000 
8939 	 C 	 35.622927 	 40.263383 	 54.768120 	 C 	 1  ala 	 1.000000 
8940 	 C 	 34.917026 	 40.706381 	 55.320801 	 C 	 1  ala 	 1.000000 
8941 	 C 	 34.551352 	 40.141687 	 56.060668 	 C 	 1  ala 	 1.000000 
8942 	 C 	 34.534263 	 39.598162 	 56.899887 	 C 	 1  ala 	 1.000000 
8943 	 C 	 34.340766 	 38.618372 	 56.950603 	 C 	 1  ala 	 1.000000 
8944 	 C 	 34.701737 	 38.208921 	 57.788487 	 C 	 1  ala 	 1.000000 
8945 	 C 	 33.780737 	 37.837446 	 57.905811 	 C 	 1  ala 	 1.000000 
8946 	 C 	 34.752983 	 38.043872 	 58.015930 	 C 	 1  ala 	 1.000000 
8947 	 C 	 34.615362 	 38.699398 	 57.273402 	 C 	 1  ala 	 1.000000 
8948 	 C 	 34.057644 	 39.424182 	 57.677924 	 C 	 1  ala 	 1.000000 
8949 	 C 	 33.307804 	 38.779932 	 57.828532 	 C 	 1  ala 	 1.000000 
8950 	 C 	 33.187592 	 38.860661 	 58.817993 	 C 	 1  ala 	 1.000000 
8951 	 C 	 33.960368 	 38.468404 	 59.316943 	 C 	 1  ala 	 1.000000 
8952 	 C 	 33.211231 	 38.732529 	 59.924423 	 C 	 1  ala 	 1.000000 
8953 	 C 	 33.727142 	 37.876758 	 59.885810 	 C 	 1  ala 	 1.000000 
8954 	 C 	 33.439063 	 38.565513 	 59.220508 	 C 	 1  ala 	 1.000000 
8955 	 C 	 33.853263 	 39.403904 	 59.574824 	 C 	 1  ala 	 1.000000 
8956 	 C 	 33.158675 	 39.184909 	 58.889558 	 C 	 1  ala 	 1.000000 
8957 	 C 	 32.409511 	 39.722323 	 58.502339 	 C 	 1  ala 	 1.000000 
8958 	 C 	 32.109298 	 39.768122 	 59.455111 	 C 	 1  ala 	 1.000000 
8959 	 C 	 32.985119 	 40.175351 	 59.196068 	 C 	 1  ala 	 1.000000 
8960 	 C 	 32.708715 	 41.099640 	 58.932838 	 C 	 1  ala 	 1.000000 
8961 	 C 	 33.418454 	 41.170735 	 59.633706 	 C 	 1  ala 	 1.000000 
8962 	 C 	 32.511145 	 40.750677 	 59.652206 	 C 	 1  ala 	 1.000000 
8963 	 C 	 33.482466 	 40.963380 	 59.758476 	 C 	 1  ala 	 1.000000 
8964 	 C 	 33.356406 	 40.280146 	 60.477713 	 C 	 1  ala 	 1.000000 
8965 	 C 	 32.940850 	 41.186851 	 60.549824 	 C 	 1  ala 	 1.000000 
8966 	 C 	 33.865956 	 40.831939 	 60.414850 	 C 	 1  ala 	 1.000000 
8967 	 C 	 34.767598 	 41.264340 	 60.406465 	 C 	 1  ala 	 1.000000 
8968 	 C 	 35.703281 	 41.464414 	 60.115832 	 C 	 1  ala 	 1.000000 
8969 	 C 	 36.241533 	 40.629579 	 60.231312 	 C 	 1  ala 	 1.000000 
8970 	 C 	 35.561329 	 40.203865 	 59.634580 	 C 	 1  ala 	 1.000000 
8971 	 C 	 35.989162 	 40.753634 	 60.352015 	 C 	 1  ala 	 1.000000 
8972 	 C 	 36.776008 	 41.221760 	 60.754174 	 C 	 1  ala 	 1.000000 
8973 	 C 	 36.394794 	 40.475210 	 61.299462 	 C 	 1  ala 	 1.000000 
8974 	 C 	 35.426378 	 40.518300 	 61.053870 	 C 	 1  ala 	 1.000000 
8975 	 C 	 36.296227 	 40.515212 	 60.560562 	 C 	 1  ala 	 1.000000 
8976 	 C 	 35.703190 	 41.257448 	 60.872638 	 C 	 1  ala 	 1.000000 
8977 	 C 	 35.095909 	 42.049854 	 60.930107 	 C 	 1  ala 	 1.000000 
8978 	 C 	 34.734845 	 42.742408 	 60.305606 	 C 	 1  ala 	 1.000000 
8979 	 C 	 34.219631 	 42.134559 	 59.701392 	 C 	 1  ala 	 1.000000 
8980 	 C 	 33.458397 	 41.601751 	 60.071036 	 C 	 1  ala 	 1.000000 
8981 	 C 	 32.579034 	 41.825987 	 60.491083 	 C 	 1  ala 	 1.000000 
8982 	 C 	 32.797809 	 42.701979 	 60.061228 	 C 	 1  ala 	 1.000000 
8983 	 C 	 32.312275 	 43.572889 	 59.985251 	 C 	 1  ala 	 1.000000 
8984 	 C 	 32.527333 	 42.602502 	 59.875257 	 C 	 1  ala 	 1.000000 
8985 	 C 	 32.215138 	 41.783324 	 60.356382 	 C 	 1  ala 	 1.000000 
8986 	 C 	 31.662732 	 41.644397 	 59.534465 	 C 	 1  ala 	 1.000000 
8987 	 C 	 31.378374 	 42.280750 	 60.251538 	 C 	 1  ala 	 1.000000 
8988 	 C 	 30.532955 	 42.705594 	 59.927848 	 C 	 1  ala 	 1.000000 
8989 	 C 	 30.511700 	 41.718872 	 59.766827 	 C 	 1  ala 	 1.000000 
8990 	 C 	 31.009560 	 40.885158 	 59.527962 	 C 	 1  ala 	 1.000000 
8991 	 C 	 30.944951 	 39.966480 	 59.917651 	 C 	 1  ala 	 1.000000 
8992 	 C 	 30.091973 	 39.669255 	 60.346702 	 C 	 1  ala 	 1.000000 
8993 	 C 	 29.131847 	 39.938243 	 60.422895 	 C 	 1  ala 	 1.000000 
8994 	 C 	 29.477505 	 39.060829 	 60.090230 	 C 	 1  ala 	 1.000000 
8995 	 C 	 29.355306 	 39.712211 	 59.341385 	 C 	 1  ala 	 1.000000 
8996 	 C 	 28.827935 	 39.036767 	 58.825967 	 C 	 1  ala 	 1.000000 
8997 	 C 	 28.788982 	 38.068736 	 58.578181 	 C 	 1  ala 	 1.000000 
8998 	 C 	 27.838606 	 37.775912 	 58.683251 	 C 	 1  ala 	 1.000000 
8999 	 C 	 27.046610 	 37.165427 	 58.676102 	 C 	 1  ala 	 1.000000 
9000 	 C 	 27.486011 	 37.240023 	 59.571291 	 C 	 1  ala 	 1.000000 
9001 	 C 	 27.088091 	 36.587193 	 60.215863 	 C 	 1  ala 	 1.000000 
9002 	 C 	 27.457815 	 36.899023 	 61.091114 	 C 	 1  ala 	 1.000000 
9003 	 C 	 26.495080 	 36.970071 	 61.352060 	 C 	 1  ala 	 1.000000 
9004 	 C 	 25.747119 	 37.596253 	 61.131946 	 C 	 1  ala 	 1.000000 
9005 	 C 	 25.308601 	 36.730651 	 60.890213 	 C 	 1  ala 	 1.000000 
9006 	 C 	 25.321217 	 36.147456 	 60.077979 	 C 	 1  ala 	 1.000000 
9007 	 C 	 25.855168 	 36.965388 	 60.292182 	 C 	 1  ala 	 1.000000 
9008 	 C 	 24.960744 	 37.175758 	 60.686834 	 C 	 1  ala 	 1.000000 
9009 	 C 	 24.652459 	 36.322245 	 61.106924 	 C 	 1  ala 	 1.000000 
9010 	 C 	 25.088628 	 35.441872 	 60.920645 	 C 	 1  ala 	 1.000000 
9011 	 C 	 25.423265 	 34.499526 	 60.919217 	 C 	 1  ala 	 1.000000 
9012 	 C 	 26.299371 	 34.300547 	 61.358359 	 C 	 1  ala 	 1.000000 
9013 	 C 	 27.105447 	 34.701843 	 61.793335 	 C 	 1  ala 	 1.000000 
9014 	 C 	 26.619913 	 34.054498 	 61.205797 	 C 	 1  ala 	 1.000000 
9015 	 C 	 26.725944 	 33.260985 	 60.606552 	 C 	 1  ala 	 1.000000 
9016 	 C 	 26.505237 	 33.168118 	 61.577460 	 C 	 1  ala 	 1.000000 
9017 	 C 	 25.551111 	 33.264216 	 61.293897 	 C 	 1  ala 	 1.000000 
9018 	 C 	 24.771475 	 32.855097 	 60.819777 	 C 	 1  ala 	 1.000000 
9019 	 C 	 25.282900 	 31.997515 	 60.874525 	 C 	 1  ala 	 1.000000 
9020 	 C 	 24.986901 	 32.547305 	 60.093427 	 C 	 1  ala 	 1.000000 
9021 	 C 	 25.418947 	 33.341744 	 60.520281 	 C 	 1  ala 	 1.000000 
9022 	 C 	 25.882899 	 32.569103 	 60.086952 	 C 	 1  ala 	 1.000000 
9023 	 C 	 25.104031 	 32.882943 	 59.543933 	 C 	 1  ala 	 1.000000 
9024 	 C 	 24.231382 	 32.585232 	 59.156826 	 C 	 1  ala 	 1.000000 
9025 	 C 	 24.686838 	 32.115776 	 58.400406 	 C 	 1  ala 	 1.000000 
9026 	 C 	 23.943991 	 32.474730 	 58.965500 	 C 	 1  ala 	 1.000000 
9027 	 C 	 23.018819 	 32.760416 	 59.215382 	 C 	 1  ala 	 1.000000 
9028 	 C 	 23.734662 	 32.143347 	 59.542178 	 C 	 1  ala 	 1.000000 
9029 	 C 	 23.457308 	 31.667430 	 60.376790 	 C 	 1  ala 	 1.000000 
9030 	 C 	 24.338990 	 31.939874 	 60.762032 	 C 	 1  ala 	 1.000000 
9031 	 C 	 25.080658 	 31.269134 	 60.756034 	 C 	 1  ala 	 1.000000 
9032 	 C 	 24.697019 	 30.360838 	 60.922827 	 C 	 1  ala 	 1.000000 
9033 	 C 	 23.787465 	 30.420191 	 61.334152 	 C 	 1  ala 	 1.000000 
9034 	 C 	 23.826373 	 31.417949 	 61.388618 	 C 	 1  ala 	 1.000000 
9035 	 C 	 24.699559 	 31.901794 	 61.447254 	 C 	 1  ala 	 1.000000 
9036 	 C 	 24.199148 	 32.600648 	 60.936185 	 C 	 1  ala 	 1.000000 
9037 	 C 	 23.746799 	 31.739214 	 61.167077 	 C 	 1  ala 	 1.000000 
9038 	 C 	 22.837725 	 31.403934 	 60.919747 	 C 	 1  ala 	 1.000000 
9039 	 C 	 23.325607 	 30.652807 	 60.475023 	 C 	 1  ala 	 1.000000 
9040 	 C 	 23.431422 	 29.801074 	 60.988203 	 C 	 1  ala 	 1.000000 
9041 	 C 	 23.706650 	 30.741504 	 60.788598 	 C 	 1  ala 	 1.000000 
9042 	 C 	 24.328150 	 29.958584 	 60.760768 	 C 	 1  ala 	 1.000000 
9043 	 C 	 24.946582 	 30.675873 	 61.081764 	 C 	 1  ala 	 1.000000 
9044 	 C 	 25.394374 	 29.940723 	 61.590721 	 C 	 1  ala 	 1.000000 
9045 	 C 	 26.343856 	 30.171361 	 61.377905 	 C 	 1  ala 	 1.000000 
9046 	 C 	 26.090624 	 29.209534 	 61.481640 	 C 	 1  ala 	 1.000000 
9047 	 C 	 26.031480 	 28.229110 	 61.669446 	 C 	 1  ala 	 1.000000 
9048 	 C 	 25.509470 	 27.411471 	 61.426604 	 C 	 1  ala 	 1.000000 
9049 	 C 	 24.715663 	 27.871743 	 61.029087 	 C 	 1  ala 	 1.000000 
9050 	 C 	 24.650685 	 27.139775 	 60.350854 	 C 	 1  ala 	 1.000000 
9051 	 C 	 23.955321 	 27.543915 	 59.756598 	 C 	 1  ala 	 1.000000 
9052 	 C 	 23.511141 	 28.079124 	 60.475107 	 C 	 1  ala 	 1.000000 
9053 	 C 	 23.926816 	 27.412271 	 61.093591 	 C 	 1  ala 	 1.000000 
9054 	 C 	 24.168959 	 28.380575 	 61.032313 	 C 	 1  ala 	 1.000000 
9055 	 C 	 24.856199 	 29.059974 	 60.775177 	 C 	 1  ala 	 1.000000 
9056 	 C 	 23.959336 	 28.847686 	 60.387141 	 C 	 1  ala 	 1.000000 
9057 	 C 	 24.713431 	 28.707059 	 61.028675 	 C 	 1  ala 	 1.000000 
9058 	 C 	 24.238259 	 29.073675 	 60.228797 	 C 	 1  ala 	 1.000000 
9059 	 C 	 25.195481 	 28.896946 	 60.457909 	 C 	 1  ala 	 1.000000 
9060 	 C 	 25.761227 	 29.707210 	 60.304922 	 C 	 1  ala 	 1.000000 
9061 	 C 	 25.103653 	 30.116678 	 59.672521 	 C 	 1  ala 	 1.000000 
9062 	 C 	 25.528965 	 29.910338 	 60.553732 	 C 	 1  ala 	 1.000000 
9063 	 C 	 25.814133 	 30.611708 	 61.207000 	 C 	 1  ala 	 1.000000 
9064 	 C 	 25.249527 	 31.437068 	 61.206102 	 C 	 1  ala 	 1.000000 
9065 	 C 	 25.062197 	 32.222414 	 61.796135 	 C 	 1  ala 	 1.000000 
9066 	 C 	 24.494373 	 32.795462 	 61.205209 	 C 	 1  ala 	 1.000000 
9067 	 C 	 23.754389 	 33.132592 	 60.623174 	 C 	 1  ala 	 1.000000 
9068 	 C 	 24.079628 	 32.309128 	 60.158280 	 C 	 1  ala 	 1.000000 
9069 	 C 	 23.914882 	 31.327018 	 60.067072 	 C 	 1  ala 	 1.000000 
9070 	 C 	 23.046968 	 31.727804 	 59.773653 	 C 	 1  ala 	 1.000000 
9071 	 C 	 23.805940 	 31.078076 	 59.731051 	 C 	 1  ala 	 1.000000 
9072 	 C 	 23.638616 	 30.122005 	 59.490362 	 C 	 1  ala 	 1.000000 
9073 	 C 	 23.225871 	 30.870306 	 60.009677 	 C 	 1  ala 	 1.000000 
9074 	 C 	 22.806384 	 30.055418 	 59.609691 	 C 	 1  ala 	 1.000000 
9075 	 C 	 23.625746 	 30.213360 	 60.160781 	 C 	 1  ala 	 1.000000 
9076 	 C 	 23.668723 	 30.796650 	 60.971907 	 C 	 1  ala 	 1.000000 
9077 	 C 	 24.645263 	 31.010691 	 60.995497 	 C 	 1  ala 	 1.000000 
9078 	 C 	 23.843774 	 30.885026 	 60.410840 	 C 	 1  ala 	 1.000000 
9079 	 C 	 23.144314 	 30.235242 	 60.113289 	 C 	 1  ala 	 1.000000 
9080 	 C 	 23.308775 	 29.370912 	 59.638014 	 C 	 1  ala 	 1.000000 
9081 	 C 	 22.914321 	 28.581124 	 60.107738 	 C 	 1  ala 	 1.000000 
9082 	 C 	 23.146362 	 29.212470 	 59.367766 	 C 	 1  ala 	 1.000000 
9083 	 C 	 22.951131 	 30.077637 	 58.905843 	 C 	 1  ala 	 1.000000 
9084 	 C 	 23.768452 	 29.757859 	 59.385145 	 C 	 1  ala 	 1.000000 
9085 	 C 	 22.852086 	 29.870228 	 59.000896 	 C 	 1  ala 	 1.000000 
9086 	 C 	 23.136268 	 29.405226 	 58.162437 	 C 	 1  ala 	 1.000000 
9087 	 C 	 23.315824 	 29.278389 	 57.186900 	 C 	 1  ala 	 1.000000 
9088 	 C 	 24.223452 	 28.882954 	 57.327765 	 C 	 1  ala 	 1.000000 
9089 	 C 	 23.530997 	 29.423390 	 57.805715 	 C 	 1  ala 	 1.000000 
9090 	 C 	 23.013637 	 30.249403 	 57.582018 	 C 	 1  ala 	 1.000000 
9091 	 C 	 24.013501 	 30.255045 	 57.597456 	 C 	 1  ala 	 1.000000 
9092 	 C 	 24.740925 	 29.581071 	 57.468561 	 C 	 1  ala 	 1.000000 
9093 	 C 	 24.013944 	 29.015409 	 57.857823 	 C 	 1  ala 	 1.000000 
9094 	 C 	 24.945553 	 29.261001 	 58.125757 	 C 	 1  ala 	 1.000000 
9095 	 C 	 24.375318 	 29.915165 	 58.622649 	 C 	 1  ala 	 1.000000 
9096 	 C 	 23.619417 	 29.374789 	 58.253045 	 C 	 1  ala 	 1.000000 
9097 	 C 	 23.617382 	 29.208716 	 59.239156 	 C 	 1  ala 	 1.000000 
9098 	 C 	 24.505295 	 29.615439 	 59.454069 	 C 	 1  ala 	 1.000000 
9099 	 C 	 24.070815 	 29.523902 	 58.558051 	 C 	 1  ala 	 1.000000 
9100 	 C 	 23.764962 	 29.613262 	 57.610175 	 C 	 1  ala 	 1.000000 
9101 	 C 	 24.022931 	 29.332212 	 58.534546 	 C 	 1  ala 	 1.000000 
9102 	 C 	 23.216769 	 29.892843 	 58.345349 	 C 	 1  ala 	 1.000000 
9103 	 C 	 22.496221 	 30.275038 	 58.923915 	 C 	 1  ala 	 1.000000 
9104 	 C 	 22.940228 	 29.380369 	 58.874651 	 C 	 1  ala 	 1.000000 
9105 	 C 	 22.289083 	 28.664042 	 58.623879 	 C 	 1  ala 	 1.000000 
9106 	 C 	 21.492051 	 28.961058 	 58.098026 	 C 	 1  ala 	 1.000000 
9107 	 C 	 22.249084 	 29.065595 	 58.742985 	 C 	 1  ala 	 1.000000 
9108 	 C 	 22.331296 	 29.779357 	 58.047439 	 C 	 1  ala 	 1.000000 
9109 	 C 	 22.976133 	 30.512977 	 57.832990 	 C 	 1  ala 	 1.000000 
9110 	 C 	 23.807853 	 30.838020 	 57.382891 	 C 	 1  ala 	 1.000000 
9111 	 C 	 23.500309 	 31.779603 	 57.520140 	 C 	 1  ala 	 1.000000 
9112 	 C 	 23.852472 	 31.577899 	 56.606194 	 C 	 1  ala 	 1.000000 
9113 	 C 	 23.157997 	 31.296820 	 57.268538 	 C 	 1  ala 	 1.000000 
9114 	 C 	 22.815352 	 30.424680 	 56.919301 	 C 	 1  ala 	 1.000000 
9115 	 C 	 21.834609 	 30.618023 	 56.946864 	 C 	 1  ala 	 1.000000 
9116 	 C 	 22.462020 	 30.177633 	 57.589057 	 C 	 1  ala 	 1.000000 
9117 	 C 	 21.859930 	 29.381679 	 57.651854 	 C 	 1  ala 	 1.000000 
9118 	 C 	 22.259672 	 28.785257 	 56.955802 	 C 	 1  ala 	 1.000000 
9119 	 C 	 22.540941 	 29.211195 	 56.095881 	 C 	 1  ala 	 1.000000 
9120 	 C 	 23.138587 	 29.762387 	 55.513639 	 C 	 1  ala 	 1.000000 
9121 	 C 	 24.014862 	 29.572472 	 55.070835 	 C 	 1  ala 	 1.000000 
9122 	 C 	 23.032510 	 29.751133 	 55.126197 	 C 	 1  ala 	 1.000000 
9123 	 C 	 22.180796 	 29.553076 	 54.641061 	 C 	 1  ala 	 1.000000 
9124 	 C 	 22.009582 	 29.300333 	 55.593325 	 C 	 1  ala 	 1.000000 
9125 	 C 	 21.538461 	 28.554695 	 56.064567 	 C 	 1  ala 	 1.000000 
9126 	 C 	 20.803531 	 27.916507 	 55.835236 	 C 	 1  ala 	 1.000000 
9127 	 C 	 20.437441 	 28.670079 	 56.381228 	 C 	 1  ala 	 1.000000 
9128 	 C 	 19.858515 	 29.485410 	 56.390265 	 C 	 1  ala 	 1.000000 
9129 	 C 	 20.088589 	 28.975178 	 57.218957 	 C 	 1  ala 	 1.000000 
9130 	 C 	 19.418803 	 28.353262 	 56.813238 	 C 	 1  ala 	 1.000000 
9131 	 C 	 18.628730 	 27.741851 	 56.768951 	 C 	 1  ala 	 1.000000 
9132 	 C 	 18.706600 	 26.744887 	 56.768826 	 C 	 1  ala 	 1.000000 
9133 	 C 	 18.079773 	 26.853108 	 57.540432 	 C 	 1  ala 	 1.000000 
9134 	 C 	 19.071659 	 26.880467 	 57.416278 	 C 	 1  ala 	 1.000000 
9135 	 C 	 18.112026 	 26.939362 	 57.141256 	 C 	 1  ala 	 1.000000 
9136 	 C 	 17.674250 	 26.977356 	 56.242975 	 C 	 1  ala 	 1.000000 
9137 	 C 	 16.775594 	 27.325176 	 55.975696 	 C 	 1  ala 	 1.000000 
9138 	 C 	 16.616630 	 27.054086 	 56.925033 	 C 	 1  ala 	 1.000000 
9139 	 C 	 17.033126 	 26.269899 	 56.465051 	 C 	 1  ala 	 1.000000 
9140 	 C 	 17.238821 	 26.092408 	 57.427437 	 C 	 1  ala 	 1.000000 
9141 	 C 	 16.548699 	 25.780831 	 56.774251 	 C 	 1  ala 	 1.000000 
9142 	 C 	 17.071662 	 24.954529 	 56.565123 	 C 	 1  ala 	 1.000000 
9143 	 C 	 16.752492 	 25.477651 	 57.355359 	 C 	 1  ala 	 1.000000 
9144 	 C 	 16.335835 	 25.146134 	 56.508900 	 C 	 1  ala 	 1.000000 
9145 	 C 	 17.316745 	 24.965890 	 56.581887 	 C 	 1  ala 	 1.000000 
9146 	 C 	 17.765350 	 24.300381 	 57.178419 	 C 	 1  ala 	 1.000000 
9147 	 C 	 17.634863 	 23.491896 	 56.604549 	 C 	 1  ala 	 1.000000 
9148 	 C 	 17.358632 	 24.225389 	 57.225584 	 C 	 1  ala 	 1.000000 
9149 	 C 	 17.317266 	 25.182378 	 56.938424 	 C 	 1  ala 	 1.000000 
9150 	 C 	 17.762535 	 24.340571 	 57.243539 	 C 	 1  ala 	 1.000000 
9151 	 C 	 18.315887 	 23.510449 	 57.312090 	 C 	 1  ala 	 1.000000 
9152 	 C 	 19.264281 	 23.638233 	 57.602298 	 C 	 1  ala 	 1.000000 
9153 	 C 	 20.128701 	 24.035702 	 57.910186 	 C 	 1  ala 	 1.000000 
9154 	 C 	 20.532683 	 23.830760 	 58.801700 	 C 	 1  ala 	 1.000000 
9155 	 C 	 20.303872 	 24.092339 	 57.864032 	 C 	 1  ala 	 1.000000 
9156 	 C 	 20.510034 	 23.115042 	 57.912895 	 C 	 1  ala 	 1.000000 
9157 	 C 	 21.394162 	 23.386072 	 57.532290 	 C 	 1  ala 	 1.000000 
9158 	 C 	 21.085335 	 23.549617 	 56.595338 	 C 	 1  ala 	 1.000000 
9159 	 C 	 21.153036 	 24.532507 	 56.424036 	 C 	 1  ala 	 1.000000 
9160 	 C 	 20.300928 	 24.066427 	 56.662115 	 C 	 1  ala 	 1.000000 
9161 	 C 	 21.182995 	 23.820716 	 57.064091 	 C 	 1  ala 	 1.000000 
9162 	 C 	 21.755425 	 23.076996 	 56.718833 	 C 	 1  ala 	 1.000000 
9163 	 C 	 21.346512 	 22.289253 	 56.258126 	 C 	 1  ala 	 1.000000 
9164 	 C 	 21.522150 	 22.808889 	 57.094266 	 C 	 1  ala 	 1.000000 
9165 	 C 	 20.818482 	 22.103650 	 57.180799 	 C 	 1  ala 	 1.000000 
9166 	 C 	 20.897850 	 22.084462 	 58.177460 	 C 	 1  ala 	 1.000000 
9167 	 C 	 20.945078 	 22.178515 	 57.183013 	 C 	 1  ala 	 1.000000 
9168 	 C 	 21.032468 	 23.110610 	 57.534528 	 C 	 1  ala 	 1.000000 
9169 	 C 	 20.120941 	 23.292848 	 57.903184 	 C 	 1  ala 	 1.000000 
9170 	 C 	 20.879648 	 23.414112 	 58.543230 	 C 	 1  ala 	 1.000000 
9171 	 C 	 21.449453 	 24.234582 	 58.496851 	 C 	 1  ala 	 1.000000 
9172 	 C 	 21.096734 	 24.607874 	 59.354896 	 C 	 1  ala 	 1.000000 
9173 	 C 	 22.020570 	 24.948888 	 59.181009 	 C 	 1  ala 	 1.000000 
9174 	 C 	 21.995260 	 25.360348 	 58.269933 	 C 	 1  ala 	 1.000000 
9175 	 C 	 22.576889 	 24.767922 	 58.827372 	 C 	 1  ala 	 1.000000 
9176 	 C 	 22.973991 	 23.956394 	 58.398730 	 C 	 1  ala 	 1.000000 
9177 	 C 	 23.165732 	 23.019413 	 58.690795 	 C 	 1  ala 	 1.000000 
9178 	 C 	 23.236453 	 22.165709 	 59.206728 	 C 	 1  ala 	 1.000000 
9179 	 C 	 22.605137 	 22.490123 	 58.502317 	 C 	 1  ala 	 1.000000 
9180 	 C 	 23.548205 	 22.657668 	 58.215001 	 C 	 1  ala 	 1.000000 
9181 	 C 	 24.428377 	 22.845151 	 58.651060 	 C 	 1  ala 	 1.000000 
9182 	 C 	 24.805428 	 22.515227 	 57.785623 	 C 	 1  ala 	 1.000000 
9183 	 C 	 24.450033 	 23.170887 	 58.451808 	 C 	 1  ala 	 1.000000 
9184 	 C 	 24.924613 	 23.059381 	 59.324929 	 C 	 1  ala 	 1.000000 
9185 	 C 	 24.537409 	 22.169648 	 59.566689 	 C 	 1  ala 	 1.000000 
9186 	 C 	 24.192601 	 23.108000 	 59.591243 	 C 	 1  ala 	 1.000000 
9187 	 C 	 24.425867 	 23.798746 	 60.275683 	 C 	 1  ala 	 1.000000 
9188 	 C 	 24.963766 	 23.026906 	 59.936672 	 C 	 1  ala 	 1.000000 
9189 	 C 	 24.088264 	 22.647111 	 59.637921 	 C 	 1  ala 	 1.000000 
9190 	 C 	 24.106632 	 21.755790 	 59.184921 	 C 	 1  ala 	 1.000000 
9191 	 C 	 24.453316 	 22.683094 	 59.326051 	 C 	 1  ala 	 1.000000 
9192 	 C 	 24.982032 	 23.314066 	 59.893795 	 C 	 1  ala 	 1.000000 
9193 	 C 	 25.839932 	 23.168102 	 59.401147 	 C 	 1  ala 	 1.000000 
9194 	 C 	 24.888772 	 23.028878 	 59.125628 	 C 	 1  ala 	 1.000000 
9195 	 C 	 24.949788 	 23.548646 	 59.977754 	 C 	 1  ala 	 1.000000 
9196 	 C 	 25.463629 	 23.995316 	 60.710184 	 C 	 1  ala 	 1.000000 
9197 	 C 	 24.789422 	 23.481249 	 60.179919 	 C 	 1  ala 	 1.000000 
9198 	 C 	 24.713776 	 24.434508 	 60.472452 	 C 	 1  ala 	 1.000000 
9199 	 C 	 24.583402 	 24.444068 	 59.481033 	 C 	 1  ala 	 1.000000 
9200 	 C 	 23.765914 	 24.709228 	 59.992308 	 C 	 1  ala 	 1.000000 
9201 	 C 	 23.752780 	 24.507565 	 59.012941 	 C 	 1  ala 	 1.000000 
9202 	 C 	 23.351711 	 25.243266 	 59.558731 	 C 	 1  ala 	 1.000000 
9203 	 C 	 23.104402 	 24.275663 	 59.507922 	 C 	 1  ala 	 1.000000 
9204 	 C 	 23.608479 	 23.489908 	 59.866386 	 C 	 1  ala 	 1.000000 
9205 	 C 	 23.079023 	 23.335184 	 59.032278 	 C 	 1  ala 	 1.000000 
9206 	 C 	 22.274897 	 23.879646 	 59.270906 	 C 	 1  ala 	 1.000000 
9207 	 C 	 23.088510 	 23.394702 	 58.950182 	 C 	 1  ala 	 1.000000 
9208 	 C 	 22.270081 	 23.121107 	 59.455474 	 C 	 1  ala 	 1.000000 
9209 	 C 	 22.174764 	 22.447527 	 58.722531 	 C 	 1  ala 	 1.000000 
9210 	 C 	 22.087482 	 23.423842 	 58.920497 	 C 	 1  ala 	 1.000000 
9211 	 C 	 21.983964 	 22.429778 	 58.953981 	 C 	 1  ala 	 1.000000 
9212 	 C 	 21.358812 	 23.195488 	 58.802744 	 C 	 1  ala 	 1.000000 
9213 	 C 	 21.723872 	 24.123174 	 58.881044 	 C 	 1  ala 	 1.000000 
9214 	 C 	 22.059609 	 23.244339 	 58.542029 	 C 	 1  ala 	 1.000000 
9215 	 C 	 22.244238 	 22.598583 	 57.801143 	 C 	 1  ala 	 1.000000 
9216 	 C 	 21.876459 	 23.223019 	 57.112073 	 C 	 1  ala 	 1.000000 
9217 	 C 	 22.601086 	 23.839300 	 57.420477 	 C 	 1  ala 	 1.000000 
9218 	 C 	 23.409589 	 23.708984 	 57.994359 	 C 	 1  ala 	 1.000000 
9219 	 C 	 23.498681 	 23.086012 	 58.771513 	 C 	 1  ala 	 1.000000 
9220 	 C 	 24.261255 	 22.493235 	 59.030544 	 C 	 1  ala 	 1.000000 
9221 	 C 	 24.467430 	 21.926819 	 58.232631 	 C 	 1  ala 	 1.000000 
9222 	 C 	 23.491576 	 22.072380 	 58.395488 	 C 	 1  ala 	 1.000000 
9223 	 C 	 24.273239 	 21.468702 	 58.552258 	 C 	 1  ala 	 1.000000 
9224 	 C 	 25.012870 	 20.799436 	 58.481350 	 C 	 1  ala 	 1.000000 
9225 	 C 	 25.253809 	 20.926124 	 57.519114 	 C 	 1  ala 	 1.000000 
9226 	 C 	 25.714271 	 21.781399 	 57.281461 	 C 	 1  ala 	 1.000000 
9227 	 C 	 26.506453 	 22.390897 	 57.312439 	 C 	 1  ala 	 1.000000 
9228 	 C 	 25.686384 	 22.624526 	 56.790037 	 C 	 1  ala 	 1.000000 
9229 	 C 	 24.921327 	 23.151423 	 56.419811 	 C 	 1  ala 	 1.000000 
9230 	 C 	 25.473267 	 22.339654 	 56.610581 	 C 	 1  ala 	 1.000000 
9231 	 C 	 26.408916 	 22.101239 	 56.870810 	 C 	 1  ala 	 1.000000 
9232 	 C 	 27.317817 	 22.135781 	 57.286390 	 C 	 1  ala 	 1.000000 
9233 	 C 	 26.487009 	 21.717257 	 57.653262 	 C 	 1  ala 	 1.000000 
9234 	 C 	 26.538025 	 21.656172 	 58.650090 	 C 	 1  ala 	 1.000000 
9235 	 C 	 26.589553 	 21.046232 	 57.859320 	 C 	 1  ala 	 1.000000 
9236 	 C 	 27.558465 	 20.806971 	 57.922278 	 C 	 1  ala 	 1.000000 
9237 	 C 	 26.998670 	 21.626332 	 58.045879 	 C 	 1  ala 	 1.000000 
9238 	 C 	 26.082694 	 21.691232 	 58.441828 	 C 	 1  ala 	 1.000000 
9239 	 C 	 26.623734 	 20.974701 	 58.882121 	 C 	 1  ala 	 1.000000 
9240 	 C 	 27.015738 	 20.753960 	 59.775210 	 C 	 1  ala 	 1.000000 
9241 	 C 	 27.713440 	 21.445821 	 59.589360 	 C 	 1  ala 	 1.000000 
9242 	 C 	 26.773696 	 21.125894 	 59.468823 	 C 	 1  ala 	 1.000000 
9243 	 C 	 26.117612 	 21.791442 	 59.824630 	 C 	 1  ala 	 1.000000 
9244 	 C 	 25.856101 	 21.375376 	 58.953711 	 C 	 1  ala 	 1.000000 
9245 	 C 	 25.350992 	 20.827362 	 58.286968 	 C 	 1  ala 	 1.000000 
9246 	 C 	 24.908324 	 21.351959 	 59.014184 	 C 	 1  ala 	 1.000000 
9247 	 C 	 25.548735 	 22.095962 	 59.204799 	 C 	 1  ala 	 1.000000 
9248 	 C 	 25.724533 	 22.974738 	 59.648474 	 C 	 1  ala 	 1.000000 
9249 	 C 	 26.585549 	 22.632192 	 60.024391 	 C 	 1  ala 	 1.000000 
9250 	 C 	 25.803637 	 22.018293 	 60.132751 	 C 	 1  ala 	 1.000000 
9251 	 C 	 26.625690 	 22.587261 	 60.155219 	 C 	 1  ala 	 1.000000 
9252 	 C 	 26.304828 	 22.618080 	 59.208594 	 C 	 1  ala 	 1.000000 
9253 	 C 	 27.231435 	 22.281477 	 59.040967 	 C 	 1  ala 	 1.000000 
9254 	 C 	 27.900068 	 22.762554 	 59.607973 	 C 	 1  ala 	 1.000000 
9255 	 C 	 28.464964 	 21.937457 	 59.618344 	 C 	 1  ala 	 1.000000 
9256 	 C 	 27.698281 	 21.874442 	 60.257269 	 C 	 1  ala 	 1.000000 
9257 	 C 	 28.537004 	 21.630138 	 59.770587 	 C 	 1  ala 	 1.000000 
9258 	 C 	 29.418023 	 21.345694 	 60.148605 	 C 	 1  ala 	 1.000000 
9259 	 C 	 28.789512 	 21.971500 	 60.610494 	 C 	 1  ala 	 1.000000 
9260 	 C 	 28.147149 	 22.551369 	 60.109373 	 C 	 1  ala 	 1.000000 
9261 	 C 	 29.066496 	 22.561342 	 59.716051 	 C 	 1  ala 	 1.000000 
9262 	 C 	 29.781384 	 21.929790 	 59.415920 	 C 	 1  ala 	 1.000000 
9263 	 C 	 28.871974 	 21.832097 	 59.820184 	 C 	 1  ala 	 1.000000 
9264 	 C 	 28.668941 	 22.201764 	 58.913474 	 C 	 1  ala 	 1.000000 
9265 	 C 	 28.446848 	 22.253751 	 59.887112 	 C 	 1  ala 	 1.000000 
9266 	 C 	 28.259901 	 23.179304 	 60.216358 	 C 	 1  ala 	 1.000000 
9267 	 C 	 27.462391 	 22.674976 	 59.885251 	 C 	 1  ala 	 1.000000 
9268 	 C 	 27.367385 	 23.568780 	 59.446971 	 C 	 1  ala 	 1.000000 
9269 	 C 	 27.727699 	 24.429681 	 59.087774 	 C 	 1  ala 	 1.000000 
9270 	 C 	 27.464296 	 25.147231 	 59.732553 	 C 	 1  ala 	 1.000000 
9271 	 C 	 27.542079 	 25.491530 	 58.796920 	 C 	 1  ala 	 1.000000 
9272 	 C 	 26.775771 	 24.991408 	 59.200221 	 C 	 1  ala 	 1.000000 
9273 	 C 	 27.061630 	 24.118008 	 59.594500 	 C 	 1  ala 	 1.000000 
9274 	 C 	 28.005149 	 24.400005 	 59.768425 	 C 	 1  ala 	 1.000000 
9275 	 C 	 28.543313 	 23.740474 	 59.243640 	 C 	 1  ala 	 1.000000 
9276 	 C 	 28.116796 	 23.163067 	 58.547448 	 C 	 1  ala 	 1.000000 
9277 	 C 	 28.451029 	 22.250786 	 58.784156 	 C 	 1  ala 	 1.000000 
9278 	 C 	 28.521878 	 21.464733 	 59.398242 	 C 	 1  ala 	 1.000000 
9279 	 C 	 27.926811 	 21.422321 	 60.200799 	 C 	 1  ala 	 1.000000 
9280 	 C 	 27.239165 	 21.038297 	 59.584626 	 C 	 1  ala 	 1.000000 
9281 	 C 	 27.559644 	 21.972876 	 59.430173 	 C 	 1  ala 	 1.000000 
9282 	 C 	 28.370314 	 21.390510 	 59.369638 	 C 	 1  ala 	 1.000000 
9283 	 C 	 27.687693 	 22.119578 	 59.419522 	 C 	 1  ala 	 1.000000 
9284 	 C 	 27.984154 	 21.179969 	 59.248508 	 C 	 1  ala 	 1.000000 
9285 	 C 	 27.234979 	 21.824335 	 59.401904 	 C 	 1  ala 	 1.000000 
9286 	 C 	 28.159911 	 22.060205 	 59.103799 	 C 	 1  ala 	 1.000000 
9287 	 C 	 27.951953 	 22.302291 	 58.156093 	 C 	 1  ala 	 1.000000 
9288 	 C 	 27.849592 	 22.433950 	 57.170097 	 C 	 1  ala 	 1.000000 
9289 	 C 	 28.020540 	 21.673938 	 56.543072 	 C 	 1  ala 	 1.000000 
9290 	 C 	 28.132383 	 21.601734 	 57.534172 	 C 	 1  ala 	 1.000000 
9291 	 C 	 27.819480 	 20.939901 	 56.852946 	 C 	 1  ala 	 1.000000 
9292 	 C 	 27.006667 	 21.422651 	 56.526927 	 C 	 1  ala 	 1.000000 
9293 	 C 	 26.459456 	 20.981474 	 57.238209 	 C 	 1  ala 	 1.000000 
9294 	 C 	 26.022666 	 20.414657 	 56.539686 	 C 	 1  ala 	 1.000000 
9295 	 C 	 25.410179 	 19.990493 	 55.872645 	 C 	 1  ala 	 1.000000 
9296 	 C 	 25.193549 	 19.703571 	 56.805783 	 C 	 1  ala 	 1.000000 
9297 	 C 	 25.316773 	 19.404945 	 57.752165 	 C 	 1  ala 	 1.000000 
9298 	 C 	 25.698449 	 18.969797 	 58.567622 	 C 	 1  ala 	 1.000000 
9299 	 C 	 25.411252 	 19.601707 	 57.847755 	 C 	 1  ala 	 1.000000 
9300 	 C 	 24.984514 	 19.584656 	 58.751970 	 C 	 1  ala 	 1.000000 
9301 	 C 	 24.233456 	 19.940584 	 58.195887 	 C 	 1  ala 	 1.000000 
9302 	 C 	 23.961684 	 20.790593 	 58.647135 	 C 	 1  ala 	 1.000000 
9303 	 C 	 24.321059 	 21.590168 	 59.128309 	 C 	 1  ala 	 1.000000 
9304 	 C 	 25.172684 	 21.848327 	 58.672141 	 C 	 1  ala 	 1.000000 
9305 	 C 	 25.822646 	 21.089595 	 58.628855 	 C 	 1  ala 	 1.000000 
9306 	 C 	 24.929616 	 20.639598 	 58.628556 	 C 	 1  ala 	 1.000000 
9307 	 C 	 24.571688 	 21.227625 	 57.903219 	 C 	 1  ala 	 1.000000 
9308 	 C 	 24.923895 	 20.849890 	 57.046909 	 C 	 1  ala 	 1.000000 
9309 	 C 	 24.427610 	 20.596583 	 56.216526 	 C 	 1  ala 	 1.000000 
9310 	 C 	 24.530132 	 21.587424 	 56.128633 	 C 	 1  ala 	 1.000000 
9311 	 C 	 24.267147 	 22.203985 	 56.870719 	 C 	 1  ala 	 1.000000 
9312 	 C 	 23.796593 	 22.944966 	 56.391629 	 C 	 1  ala 	 1.000000 
9313 	 C 	 23.134438 	 22.960448 	 57.140837 	 C 	 1  ala 	 1.000000 
9314 	 C 	 22.327984 	 23.506987 	 57.366507 	 C 	 1  ala 	 1.000000 
9315 	 C 	 21.562388 	 23.355496 	 56.741277 	 C 	 1  ala 	 1.000000 
9316 	 C 	 20.956658 	 22.590788 	 56.961080 	 C 	 1  ala 	 1.000000 
9317 	 C 	 21.064760 	 23.294918 	 57.662874 	 C 	 1  ala 	 1.000000 
9318 	 C 	 20.274573 	 23.867646 	 57.444728 	 C 	 1  ala 	 1.000000 
9319 	 C 	 19.793812 	 23.280570 	 56.793413 	 C 	 1  ala 	 1.000000 
9320 	 C 	 19.977292 	 22.330637 	 57.046322 	 C 	 1  ala 	 1.000000 
9321 	 C 	 19.378237 	 23.111375 	 56.868610 	 C 	 1  ala 	 1.000000 
9322 	 C 	 19.426406 	 22.331756 	 56.244211 	 C 	 1  ala 	 1.000000 
9323 	 C 	 18.906691 	 23.047804 	 56.710228 	 C 	 1  ala 	 1.000000 
9324 	 C 	 19.798418 	 22.604476 	 56.619214 	 C 	 1  ala 	 1.000000 
9325 	 C 	 20.495351 	 22.599027 	 55.902099 	 C 	 1  ala 	 1.000000 
9326 	 C 	 19.916890 	 21.784277 	 55.941656 	 C 	 1  ala 	 1.000000 
9327 	 C 	 20.351233 	 21.317810 	 55.171101 	 C 	 1  ala 	 1.000000 
9328 	 C 	 20.804192 	 21.941227 	 54.533780 	 C 	 1  ala 	 1.000000 
9329 	 C 	 21.415864 	 21.465867 	 55.166149 	 C 	 1  ala 	 1.000000 
9330 	 C 	 21.453891 	 20.797497 	 54.423293 	 C 	 1  ala 	 1.000000 
9331 	 C 	 21.852734 	 20.652277 	 53.517845 	 C 	 1  ala 	 1.000000 
9332 	 C 	 22.241112 	 21.070547 	 52.696741 	 C 	 1  ala 	 1.000000 
9333 	 C 	 21.566502 	 21.446263 	 52.061337 	 C 	 1  ala 	 1.000000 
9334 	 C 	 21.505706 	 22.429138 	 51.887380 	 C 	 1  ala 	 1.000000 
9335 	 C 	 21.737500 	 22.603051 	 50.930287 	 C 	 1  ala 	 1.000000 
9336 	 C 	 22.446156 	 22.634045 	 51.635160 	 C 	 1  ala 	 1.000000 
9337 	 C 	 23.113608 	 23.250842 	 52.052376 	 C 	 1  ala 	 1.000000 
9338 	 C 	 23.000204 	 22.689541 	 52.872182 	 C 	 1  ala 	 1.000000 
9339 	 C 	 23.663608 	 22.031782 	 53.228900 	 C 	 1  ala 	 1.000000 
9340 	 C 	 22.776341 	 22.003178 	 52.768532 	 C 	 1  ala 	 1.000000 
9341 	 C 	 23.638493 	 21.626745 	 52.429425 	 C 	 1  ala 	 1.000000 
9342 	 C 	 23.001310 	 22.204830 	 51.919703 	 C 	 1  ala 	 1.000000 
9343 	 C 	 23.484603 	 21.830026 	 52.710873 	 C 	 1  ala 	 1.000000 
9344 	 C 	 23.314515 	 20.863904 	 52.516761 	 C 	 1  ala 	 1.000000 
9345 	 C 	 23.328945 	 21.863761 	 52.525592 	 C 	 1  ala 	 1.000000 
9346 	 C 	 22.463312 	 22.364419 	 52.530109 	 C 	 1  ala 	 1.000000 
9347 	 C 	 22.090536 	 22.673009 	 51.655003 	 C 	 1  ala 	 1.000000 
9348 	 C 	 22.489603 	 22.772609 	 50.743507 	 C 	 1  ala 	 1.000000 
9349 	 C 	 23.210006 	 23.256969 	 51.239910 	 C 	 1  ala 	 1.000000 
9350 	 C 	 23.079250 	 24.091760 	 51.774723 	 C 	 1  ala 	 1.000000 
9351 	 C 	 23.327398 	 24.801698 	 52.433823 	 C 	 1  ala 	 1.000000 
9352 	 C 	 23.821350 	 25.310571 	 53.138847 	 C 	 1  ala 	 1.000000 
9353 	 C 	 24.014299 	 24.900866 	 54.030425 	 C 	 1  ala 	 1.000000 
9354 	 C 	 24.930302 	 24.508791 	 54.115372 	 C 	 1  ala 	 1.000000 
9355 	 C 	 24.909052 	 23.563274 	 54.440251 	 C 	 1  ala 	 1.000000 
9356 	 C 	 24.237965 	 22.857217 	 54.214145 	 C 	 1  ala 	 1.000000 
9357 	 C 	 23.827106 	 23.508413 	 53.576072 	 C 	 1  ala 	 1.000000 
9358 	 C 	 24.373613 	 24.176917 	 54.080484 	 C 	 1  ala 	 1.000000 
9359 	 C 	 24.345148 	 24.888804 	 53.378767 	 C 	 1  ala 	 1.000000 
9360 	 C 	 23.766043 	 24.655485 	 54.159920 	 C 	 1  ala 	 1.000000 
9361 	 C 	 23.742315 	 25.539006 	 54.627711 	 C 	 1  ala 	 1.000000 
9362 	 C 	 24.522134 	 25.300648 	 55.206561 	 C 	 1  ala 	 1.000000 
9363 	 C 	 25.331620 	 25.866827 	 55.362039 	 C 	 1  ala 	 1.000000 
9364 	 C 	 24.525807 	 25.288499 	 55.234750 	 C 	 1  ala 	 1.000000 
9365 	 C 	 24.139118 	 25.542365 	 54.348170 	 C 	 1  ala 	 1.000000 
9366 	 C 	 24.521217 	 26.453348 	 54.192898 	 C 	 1  ala 	 1.000000 
9367 	 C 	 25.400229 	 26.444561 	 53.716180 	 C 	 1  ala 	 1.000000 
9368 	 C 	 26.062130 	 25.831239 	 54.147138 	 C 	 1  ala 	 1.000000 
9369 	 C 	 25.247223 	 25.308412 	 54.397296 	 C 	 1  ala 	 1.000000 
9370 	 C 	 24.970651 	 25.406158 	 53.441287 	 C 	 1  ala 	 1.000000 
9371 	 C 	 25.382698 	 26.316798 	 53.472133 	 C 	 1  ala 	 1.000000 
9372 	 C 	 24.833289 	 25.481326 	 53.483740 	 C 	 1  ala 	 1.000000 
9373 	 C 	 25.311087 	 24.653832 	 53.778635 	 C 	 1  ala 	 1.000000 
9374 	 C 	 26.016453 	 25.357875 	 53.860989 	 C 	 1  ala 	 1.000000 
9375 	 C 	 25.144344 	 25.570236 	 54.301817 	 C 	 1  ala 	 1.000000 
9376 	 C 	 24.904176 	 25.294710 	 55.232626 	 C 	 1  ala 	 1.000000 
9377 	 C 	 25.683433 	 25.280766 	 55.859176 	 C 	 1  ala 	 1.000000 
9378 	 C 	 25.662143 	 24.304732 	 55.642602 	 C 	 1  ala 	 1.000000 
9379 	 C 	 25.090907 	 23.956722 	 54.899247 	 C 	 1  ala 	 1.000000 
9380 	 C 	 24.145851 	 24.269889 	 54.805462 	 C 	 1  ala 	 1.000000 
9381 	 C 	 24.542985 	 23.474752 	 54.347159 	 C 	 1  ala 	 1.000000 
9382 	 C 	 24.059061 	 23.203934 	 55.179310 	 C 	 1  ala 	 1.000000 
9383 	 C 	 24.978639 	 23.538621 	 55.385127 	 C 	 1  ala 	 1.000000 
9384 	 C 	 24.368144 	 24.267860 	 55.694168 	 C 	 1  ala 	 1.000000 
9385 	 C 	 24.449248 	 24.247282 	 56.690662 	 C 	 1  ala 	 1.000000 
9386 	 C 	 24.986350 	 24.204226 	 57.533079 	 C 	 1  ala 	 1.000000 
9387 	 C 	 24.618087 	 24.057913 	 58.451216 	 C 	 1  ala 	 1.000000 
9388 	 C 	 25.289638 	 24.491420 	 59.052123 	 C 	 1  ala 	 1.000000 
9389 	 C 	 24.982226 	 25.265103 	 59.606120 	 C 	 1  ala 	 1.000000 
9390 	 C 	 25.920268 	 25.366650 	 59.274812 	 C 	 1  ala 	 1.000000 
9391 	 C 	 25.694697 	 24.520327 	 58.792262 	 C 	 1  ala 	 1.000000 
9392 	 C 	 25.872918 	 25.501096 	 58.871823 	 C 	 1  ala 	 1.000000 
9393 	 C 	 24.953455 	 25.131670 	 58.737243 	 C 	 1  ala 	 1.000000 
9394 	 C 	 25.608889 	 24.543638 	 58.263297 	 C 	 1  ala 	 1.000000 
9395 	 C 	 24.839201 	 23.992813 	 58.586055 	 C 	 1  ala 	 1.000000 
9396 	 C 	 25.169564 	 24.585696 	 59.320460 	 C 	 1  ala 	 1.000000 
9397 	 C 	 24.676674 	 25.441283 	 59.478670 	 C 	 1  ala 	 1.000000 
9398 	 C 	 25.379761 	 24.853025 	 59.079145 	 C 	 1  ala 	 1.000000 
9399 	 C 	 24.798177 	 25.535773 	 59.521428 	 C 	 1  ala 	 1.000000 
9400 	 C 	 25.585582 	 26.016600 	 59.135682 	 C 	 1  ala 	 1.000000 
9401 	 C 	 25.622389 	 26.392925 	 58.209926 	 C 	 1  ala 	 1.000000 
9402 	 C 	 25.816156 	 25.790772 	 57.435416 	 C 	 1  ala 	 1.000000 
9403 	 C 	 26.307377 	 24.954300 	 57.192482 	 C 	 1  ala 	 1.000000 
9404 	 C 	 26.580053 	 24.032146 	 56.918111 	 C 	 1  ala 	 1.000000 
9405 	 C 	 26.556936 	 23.285508 	 56.253283 	 C 	 1  ala 	 1.000000 
9406 	 C 	 26.433280 	 22.698057 	 55.453526 	 C 	 1  ala 	 1.000000 
9407 	 C 	 25.677155 	 22.829226 	 56.094672 	 C 	 1  ala 	 1.000000 
9408 	 C 	 26.006070 	 23.764652 	 56.224252 	 C 	 1  ala 	 1.000000 
9409 	 C 	 25.459445 	 23.870496 	 57.054913 	 C 	 1  ala 	 1.000000 
9410 	 C 	 24.528213 	 23.520607 	 57.156822 	 C 	 1  ala 	 1.000000 
9411 	 C 	 23.659346 	 23.949149 	 57.404655 	 C 	 1  ala 	 1.000000 
9412 	 C 	 24.386539 	 23.274951 	 57.275629 	 C 	 1  ala 	 1.000000 
9413 	 C 	 24.803394 	 23.266149 	 56.366699 	 C 	 1  ala 	 1.000000 
9414 	 C 	 24.099572 	 23.343856 	 55.660586 	 C 	 1  ala 	 1.000000 
9415 	 C 	 25.018063 	 23.103946 	 55.974939 	 C 	 1  ala 	 1.000000 
9416 	 C 	 24.419980 	 22.322815 	 55.795686 	 C 	 1  ala 	 1.000000 
9417 	 C 	 25.379593 	 22.044912 	 55.751973 	 C 	 1  ala 	 1.000000 
9418 	 C 	 25.177440 	 22.996261 	 55.519446 	 C 	 1  ala 	 1.000000 
9419 	 C 	 25.448242 	 22.142897 	 55.073984 	 C 	 1  ala 	 1.000000 
9420 	 C 	 26.170733 	 21.456816 	 55.159430 	 C 	 1  ala 	 1.000000 
9421 	 C 	 25.657890 	 22.315279 	 55.153583 	 C 	 1  ala 	 1.000000 
9422 	 C 	 24.828111 	 22.846729 	 54.983209 	 C 	 1  ala 	 1.000000 
9423 	 C 	 24.201773 	 22.284942 	 55.523668 	 C 	 1  ala 	 1.000000 
9424 	 C 	 24.988721 	 22.062854 	 54.948003 	 C 	 1  ala 	 1.000000 
9425 	 C 	 25.752771 	 22.521584 	 55.401649 	 C 	 1  ala 	 1.000000 
9426 	 C 	 24.990729 	 22.961180 	 55.877092 	 C 	 1  ala 	 1.000000 
9427 	 C 	 24.470718 	 22.347584 	 56.471304 	 C 	 1  ala 	 1.000000 
9428 	 C 	 24.765336 	 21.492167 	 56.045320 	 C 	 1  ala 	 1.000000 
9429 	 C 	 24.094477 	 20.761320 	 56.171063 	 C 	 1  ala 	 1.000000 
9430 	 C 	 24.227929 	 20.074762 	 55.456341 	 C 	 1  ala 	 1.000000 
9431 	 C 	 25.108807 	 20.347580 	 55.843154 	 C 	 1  ala 	 1.000000 
9432 	 C 	 24.806101 	 21.300377 	 55.866537 	 C 	 1  ala 	 1.000000 
9433 	 C 	 25.411534 	 22.093243 	 55.797157 	 C 	 1  ala 	 1.000000 
9434 	 C 	 25.908527 	 21.395657 	 56.313269 	 C 	 1  ala 	 1.000000 
9435 	 C 	 26.044274 	 22.357972 	 56.548901 	 C 	 1  ala 	 1.000000 
9436 	 C 	 25.210259 	 22.563139 	 56.036724 	 C 	 1  ala 	 1.000000 
9437 	 C 	 25.920582 	 22.284066 	 56.682912 	 C 	 1  ala 	 1.000000 
9438 	 C 	 26.348046 	 22.638888 	 57.514402 	 C 	 1  ala 	 1.000000 
9439 	 C 	 27.297138 	 22.890216 	 57.324511 	 C 	 1  ala 	 1.000000 
9440 	 C 	 28.087230 	 22.616380 	 56.776088 	 C 	 1  ala 	 1.000000 
9441 	 C 	 29.079320 	 22.592158 	 56.652912 	 C 	 1  ala 	 1.000000 
9442 	 C 	 28.923869 	 23.440296 	 56.146458 	 C 	 1  ala 	 1.000000 
9443 	 C 	 28.448870 	 22.629981 	 56.489626 	 C 	 1  ala 	 1.000000 
9444 	 C 	 28.832696 	 22.005606 	 57.169945 	 C 	 1  ala 	 1.000000 
9445 	 C 	 29.593889 	 22.485999 	 56.734276 	 C 	 1  ala 	 1.000000 
9446 	 C 	 29.579727 	 23.181811 	 57.452360 	 C 	 1  ala 	 1.000000 
9447 	 C 	 30.344896 	 23.014630 	 58.074105 	 C 	 1  ala 	 1.000000 
9448 	 C 	 29.650839 	 23.595120 	 57.648292 	 C 	 1  ala 	 1.000000 
9449 	 C 	 29.932318 	 22.718903 	 57.257122 	 C 	 1  ala 	 1.000000 
9450 	 C 	 30.001297 	 21.732711 	 57.407681 	 C 	 1  ala 	 1.000000 
9451 	 C 	 30.376172 	 21.131604 	 58.113471 	 C 	 1  ala 	 1.000000 
9452 	 C 	 29.987615 	 22.044107 	 57.985552 	 C 	 1  ala 	 1.000000 
9453 	 C 	 29.559871 	 22.920850 	 57.765651 	 C 	 1  ala 	 1.000000 
9454 	 C 	 30.012106 	 23.479855 	 58.460630 	 C 	 1  ala 	 1.000000 
9455 	 C 	 30.426458 	 23.050549 	 57.658129 	 C 	 1  ala 	 1.000000 
9456 	 C 	 30.119991 	 23.301465 	 56.739913 	 C 	 1  ala 	 1.000000 
9457 	 C 	 30.287055 	 23.967261 	 56.012723 	 C 	 1  ala 	 1.000000 
9458 	 C 	 29.440791 	 24.471983 	 56.183289 	 C 	 1  ala 	 1.000000 
9459 	 C 	 29.429329 	 25.010166 	 57.026039 	 C 	 1  ala 	 1.000000 
9460 	 C 	 29.883812 	 25.554178 	 56.320705 	 C 	 1  ala 	 1.000000 
9461 	 C 	 30.322557 	 24.778773 	 55.866557 	 C 	 1  ala 	 1.000000 
9462 	 C 	 30.980201 	 24.853974 	 55.116991 	 C 	 1  ala 	 1.000000 
9463 	 C 	 30.918177 	 23.978531 	 55.596316 	 C 	 1  ala 	 1.000000 
9464 	 C 	 31.199666 	 24.894880 	 55.881040 	 C 	 1  ala 	 1.000000 
9465 	 C 	 31.052989 	 25.831109 	 55.561726 	 C 	 1  ala 	 1.000000 
9466 	 C 	 31.914063 	 26.246990 	 55.269161 	 C 	 1  ala 	 1.000000 
9467 	 C 	 31.823373 	 25.687672 	 56.093138 	 C 	 1  ala 	 1.000000 
9468 	 C 	 31.624398 	 26.356407 	 55.376757 	 C 	 1  ala 	 1.000000 
9469 	 C 	 31.935686 	 26.264436 	 54.430902 	 C 	 1  ala 	 1.000000 
9470 	 C 	 32.735510 	 26.311089 	 53.832483 	 C 	 1  ala 	 1.000000 
9471 	 C 	 32.763266 	 25.333601 	 54.041641 	 C 	 1  ala 	 1.000000 
9472 	 C 	 32.150563 	 25.232578 	 53.257811 	 C 	 1  ala 	 1.000000 
9473 	 C 	 32.438232 	 24.653191 	 54.020409 	 C 	 1  ala 	 1.000000 
9474 	 C 	 33.394681 	 24.507065 	 54.273100 	 C 	 1  ala 	 1.000000 
9475 	 C 	 34.382674 	 24.426389 	 54.141343 	 C 	 1  ala 	 1.000000 
9476 	 C 	 34.905014 	 25.180471 	 54.539490 	 C 	 1  ala 	 1.000000 
9477 	 C 	 34.983877 	 24.183712 	 54.555379 	 C 	 1  ala 	 1.000000 
9478 	 C 	 35.746875 	 23.541866 	 54.631977 	 C 	 1  ala 	 1.000000 
9479 	 C 	 35.294821 	 22.942105 	 55.292230 	 C 	 1  ala 	 1.000000 
9480 	 C 	 35.715546 	 22.293049 	 54.658419 	 C 	 1  ala 	 1.000000 
9481 	 C 	 35.978752 	 22.094961 	 53.714235 	 C 	 1  ala 	 1.000000 
9482 	 C 	 35.834922 	 22.546395 	 52.833598 	 C 	 1  ala 	 1.000000 
9483 	 C 	 35.512787 	 21.938319 	 53.559183 	 C 	 1  ala 	 1.000000 
9484 	 C 	 35.093677 	 22.105345 	 54.451623 	 C 	 1  ala 	 1.000000 
9485 	 C 	 34.123946 	 22.023912 	 54.681820 	 C 	 1  ala 	 1.000000 
9486 	 C 	 34.958669 	 22.515836 	 54.929306 	 C 	 1  ala 	 1.000000 
9487 	 C 	 35.387053 	 23.360191 	 54.607511 	 C 	 1  ala 	 1.000000 
9488 	 C 	 35.333973 	 22.444293 	 55.005397 	 C 	 1  ala 	 1.000000 
9489 	 C 	 35.261303 	 22.392462 	 54.009389 	 C 	 1  ala 	 1.000000 
9490 	 C 	 34.810112 	 21.670540 	 53.484742 	 C 	 1  ala 	 1.000000 
9491 	 C 	 33.900844 	 21.952838 	 53.178898 	 C 	 1  ala 	 1.000000 
9492 	 C 	 34.177332 	 21.095092 	 52.745508 	 C 	 1  ala 	 1.000000 
9493 	 C 	 33.934065 	 20.596897 	 53.577748 	 C 	 1  ala 	 1.000000 
9494 	 C 	 34.621966 	 20.292253 	 54.236522 	 C 	 1  ala 	 1.000000 
9495 	 C 	 34.993409 	 19.736737 	 53.492592 	 C 	 1  ala 	 1.000000 
9496 	 C 	 35.277101 	 20.071042 	 54.391346 	 C 	 1  ala 	 1.000000 
9497 	 C 	 34.403827 	 19.773483 	 54.005533 	 C 	 1  ala 	 1.000000 
9498 	 C 	 35.240490 	 20.271798 	 54.232859 	 C 	 1  ala 	 1.000000 
9499 	 C 	 35.875825 	 20.095301 	 53.481063 	 C 	 1  ala 	 1.000000 
9500 	 C 	 35.958213 	 19.698610 	 54.395310 	 C 	 1  ala 	 1.000000 
9501 	 C 	 35.342694 	 20.386163 	 54.780547 	 C 	 1  ala 	 1.000000 
9502 	 C 	 35.952181 	 20.496745 	 55.565593 	 C 	 1  ala 	 1.000000 
9503 	 C 	 36.679004 	 19.828171 	 55.408311 	 C 	 1  ala 	 1.000000 
9504 	 C 	 37.146537 	 20.711800 	 55.433068 	 C 	 1  ala 	 1.000000 
9505 	 C 	 36.860573 	 21.636539 	 55.181904 	 C 	 1  ala 	 1.000000 
9506 	 C 	 36.908334 	 21.996236 	 54.250059 	 C 	 1  ala 	 1.000000 
9507 	 C 	 37.811763 	 22.275318 	 53.924591 	 C 	 1  ala 	 1.000000 
9508 	 C 	 37.130285 	 22.427332 	 53.208714 	 C 	 1  ala 	 1.000000 
9509 	 C 	 37.187467 	 21.432690 	 53.122589 	 C 	 1  ala 	 1.000000 
9510 	 C 	 37.036452 	 21.843354 	 52.223395 	 C 	 1  ala 	 1.000000 
9511 	 C 	 37.996668 	 22.024188 	 52.010594 	 C 	 1  ala 	 1.000000 
9512 	 C 	 38.069658 	 21.738654 	 52.966179 	 C 	 1  ala 	 1.000000 
9513 	 C 	 37.983273 	 21.958870 	 53.937797 	 C 	 1  ala 	 1.000000 
9514 	 C 	 37.058613 	 21.757512 	 53.614598 	 C 	 1  ala 	 1.000000 
9515 	 C 	 37.900577 	 21.510302 	 54.094163 	 C 	 1  ala 	 1.000000 
9516 	 C 	 37.827103 	 20.976776 	 53.251577 	 C 	 1  ala 	 1.000000 
9517 	 C 	 38.314478 	 20.240180 	 53.720504 	 C 	 1  ala 	 1.000000 
9518 	 C 	 38.279930 	 19.960246 	 54.679901 	 C 	 1  ala 	 1.000000 
9519 	 C 	 39.231133 	 20.152759 	 54.438754 	 C 	 1  ala 	 1.000000 
9520 	 C 	 38.736624 	 20.841632 	 54.968768 	 C 	 1  ala 	 1.000000 
9521 	 C 	 38.189678 	 20.798463 	 54.132714 	 C 	 1  ala 	 1.000000 
9522 	 C 	 37.349109 	 21.116924 	 53.694505 	 C 	 1  ala 	 1.000000 
9523 	 C 	 36.901656 	 21.128473 	 54.588738 	 C 	 1  ala 	 1.000000 
9524 	 C 	 36.547051 	 20.681747 	 55.410134 	 C 	 1  ala 	 1.000000 
9525 	 C 	 36.845556 	 21.200047 	 54.608722 	 C 	 1  ala 	 1.000000 
9526 	 C 	 36.951492 	 20.618608 	 53.802059 	 C 	 1  ala 	 1.000000 
9527 	 C 	 36.404553 	 20.864069 	 53.001680 	 C 	 1  ala 	 1.000000 
9528 	 C 	 37.263527 	 20.422685 	 52.742172 	 C 	 1  ala 	 1.000000 
9529 	 C 	 37.435562 	 21.407459 	 52.717200 	 C 	 1  ala 	 1.000000 
9530 	 C 	 38.324039 	 21.006241 	 52.939986 	 C 	 1  ala 	 1.000000 
9531 	 C 	 38.040957 	 21.150782 	 51.991844 	 C 	 1  ala 	 1.000000 
9532 	 C 	 37.660936 	 20.240207 	 51.829250 	 C 	 1  ala 	 1.000000 
9533 	 C 	 38.163532 	 21.024648 	 52.192636 	 C 	 1  ala 	 1.000000 
9534 	 C 	 37.332469 	 21.348486 	 51.740460 	 C 	 1  ala 	 1.000000 
9535 	 C 	 37.919323 	 20.754327 	 51.190389 	 C 	 1  ala 	 1.000000 
9536 	 C 	 38.267512 	 20.755810 	 50.252966 	 C 	 1  ala 	 1.000000 
9537 	 C 	 38.069356 	 19.988315 	 49.643306 	 C 	 1  ala 	 1.000000 
9538 	 C 	 38.078085 	 19.545809 	 50.540030 	 C 	 1  ala 	 1.000000 
9539 	 C 	 37.447395 	 19.414394 	 49.775203 	 C 	 1  ala 	 1.000000 
9540 	 C 	 37.405359 	 20.290206 	 49.294383 	 C 	 1  ala 	 1.000000 
9541 	 C 	 37.919870 	 19.525381 	 48.906671 	 C 	 1  ala 	 1.000000 
9542 	 C 	 37.139216 	 19.560197 	 48.282679 	 C 	 1  ala 	 1.000000 
9543 	 C 	 36.620883 	 19.201640 	 49.059060 	 C 	 1  ala 	 1.000000 
9544 	 C 	 35.875034 	 18.640465 	 49.417935 	 C 	 1  ala 	 1.000000 
9545 	 C 	 35.380968 	 17.814709 	 49.690015 	 C 	 1  ala 	 1.000000 
9546 	 C 	 36.312372 	 17.905359 	 50.042534 	 C 	 1  ala 	 1.000000 
9547 	 C 	 37.068936 	 17.533534 	 50.580454 	 C 	 1  ala 	 1.000000 
9548 	 C 	 36.461586 	 18.255720 	 50.911473 	 C 	 1  ala 	 1.000000 
9549 	 C 	 36.113589 	 18.189186 	 51.846605 	 C 	 1  ala 	 1.000000 
9550 	 C 	 35.341141 	 18.361884 	 52.457751 	 C 	 1  ala 	 1.000000 
9551 	 C 	 36.048776 	 18.550818 	 53.138601 	 C 	 1  ala 	 1.000000 
9552 	 C 	 35.986024 	 17.643062 	 53.553380 	 C 	 1  ala 	 1.000000 
9553 	 C 	 36.730799 	 18.145862 	 53.114630 	 C 	 1  ala 	 1.000000 
9554 	 C 	 36.015080 	 17.509311 	 52.827319 	 C 	 1  ala 	 1.000000 
9555 	 C 	 36.324272 	 17.870213 	 53.707176 	 C 	 1  ala 	 1.000000 
9556 	 C 	 36.623082 	 16.994667 	 53.327530 	 C 	 1  ala 	 1.000000 
9557 	 C 	 36.155339 	 17.155738 	 54.196595 	 C 	 1  ala 	 1.000000 
9558 	 C 	 36.290351 	 17.874325 	 53.514390 	 C 	 1  ala 	 1.000000 
9559 	 C 	 35.920359 	 18.776507 	 53.736143 	 C 	 1  ala 	 1.000000 
9560 	 C 	 36.620450 	 18.189222 	 54.142307 	 C 	 1  ala 	 1.000000 
9561 	 C 	 37.509137 	 17.907803 	 54.504299 	 C 	 1  ala 	 1.000000 
9562 	 C 	 38.396044 	 17.790405 	 54.951081 	 C 	 1  ala 	 1.000000 
9563 	 C 	 37.636200 	 17.160973 	 55.113720 	 C 	 1  ala 	 1.000000 
9564 	 C 	 37.008666 	 16.801424 	 55.804319 	 C 	 1  ala 	 1.000000 
9565 	 C 	 37.795228 	 16.829587 	 55.187450 	 C 	 1  ala 	 1.000000 
9566 	 C 	 37.822485 	 15.840626 	 55.041807 	 C 	 1  ala 	 1.000000 
9567 	 C 	 37.873234 	 16.233838 	 54.123760 	 C 	 1  ala 	 1.000000 
9568 	 C 	 38.030764 	 17.198160 	 53.911001 	 C 	 1  ala 	 1.000000 
9569 	 C 	 37.993460 	 16.213468 	 54.081267 	 C 	 1  ala 	 1.000000 
9570 	 C 	 38.071463 	 16.921528 	 53.379436 	 C 	 1  ala 	 1.000000 
9571 	 C 	 37.563344 	 16.989074 	 54.238070 	 C 	 1  ala 	 1.000000 
9572 	 C 	 37.929994 	 17.270589 	 53.351325 	 C 	 1  ala 	 1.000000 
9573 	 C 	 38.233846 	 16.932491 	 52.460615 	 C 	 1  ala 	 1.000000 
9574 	 C 	 37.431240 	 17.470799 	 52.717615 	 C 	 1  ala 	 1.000000 
9575 	 C 	 38.006247 	 18.044962 	 53.300457 	 C 	 1  ala 	 1.000000 
9576 	 C 	 37.556009 	 18.483549 	 52.522686 	 C 	 1  ala 	 1.000000 
9577 	 C 	 36.693669 	 18.987316 	 52.471808 	 C 	 1  ala 	 1.000000 
9578 	 C 	 36.836155 	 18.893692 	 51.486449 	 C 	 1  ala 	 1.000000 
9579 	 C 	 36.961935 	 18.809591 	 52.474936 	 C 	 1  ala 	 1.000000 
9580 	 C 	 36.471334 	 18.201085 	 53.098660 	 C 	 1  ala 	 1.000000 
9581 	 C 	 36.232829 	 17.604924 	 52.332039 	 C 	 1  ala 	 1.000000 
9582 	 C 	 36.654772 	 18.508232 	 52.409490 	 C 	 1  ala 	 1.000000 
9583 	 C 	 37.140928 	 18.128966 	 51.622210 	 C 	 1  ala 	 1.000000 
9584 	 C 	 36.464706 	 17.536825 	 52.060494 	 C 	 1  ala 	 1.000000 
9585 	 C 	 36.181243 	 18.106085 	 52.832240 	 C 	 1  ala 	 1.000000 
9586 	 C 	 35.666794 	 17.291885 	 53.101351 	 C 	 1  ala 	 1.000000 
9587 	 C 	 36.358739 	 17.274210 	 52.379617 	 C 	 1  ala 	 1.000000 
9588 	 C 	 35.437038 	 17.591346 	 52.602985 	 C 	 1  ala 	 1.000000 
9589 	 C 	 36.000869 	 17.466951 	 51.786516 	 C 	 1  ala 	 1.000000 
9590 	 C 	 36.150709 	 18.218315 	 52.429167 	 C 	 1  ala 	 1.000000 
9591 	 C 	 36.627076 	 17.451020 	 51.999828 	 C 	 1  ala 	 1.000000 
9592 	 C 	 35.727380 	 17.828970 	 52.218233 	 C 	 1  ala 	 1.000000 
9593 	 C 	 35.219560 	 17.657909 	 53.062541 	 C 	 1  ala 	 1.000000 
9594 	 C 	 34.294052 	 17.913553 	 53.341970 	 C 	 1  ala 	 1.000000 
9595 	 C 	 34.072487 	 17.167765 	 52.713711 	 C 	 1  ala 	 1.000000 
9596 	 C 	 34.562111 	 18.003832 	 52.466206 	 C 	 1  ala 	 1.000000 
9597 	 C 	 35.359777 	 18.192572 	 51.893400 	 C 	 1  ala 	 1.000000 
9598 	 C 	 35.296001 	 19.176720 	 52.058883 	 C 	 1  ala 	 1.000000 
9599 	 C 	 34.427159 	 19.302719 	 52.537671 	 C 	 1  ala 	 1.000000 
9600 	 C 	 35.124261 	 18.692006 	 52.913276 	 C 	 1  ala 	 1.000000 
9601 	 C 	 34.528963 	 18.601244 	 53.711639 	 C 	 1  ala 	 1.000000 
9602 	 C 	 33.963968 	 19.414811 	 53.574202 	 C 	 1  ala 	 1.000000 
9603 	 C 	 34.286729 	 18.513613 	 53.863455 	 C 	 1  ala 	 1.000000 
9604 	 C 	 35.181819 	 18.076471 	 53.775585 	 C 	 1  ala 	 1.000000 
9605 	 C 	 35.347373 	 17.595487 	 52.914629 	 C 	 1  ala 	 1.000000 
9606 	 C 	 35.220920 	 16.774019 	 53.470686 	 C 	 1  ala 	 1.000000 
9607 	 C 	 35.798934 	 15.963732 	 53.374069 	 C 	 1  ala 	 1.000000 
9608 	 C 	 35.584268 	 14.991677 	 53.469076 	 C 	 1  ala 	 1.000000 
9609 	 C 	 35.448730 	 15.977749 	 53.372692 	 C 	 1  ala 	 1.000000 
9610 	 C 	 34.625681 	 16.357839 	 53.794739 	 C 	 1  ala 	 1.000000 
9611 	 C 	 35.453816 	 16.021434 	 54.243097 	 C 	 1  ala 	 1.000000 
9612 	 C 	 35.753013 	 15.204970 	 54.736926 	 C 	 1  ala 	 1.000000 
9613 	 C 	 36.503649 	 14.566090 	 54.905387 	 C 	 1  ala 	 1.000000 
9614 	 C 	 35.508412 	 14.579618 	 54.808842 	 C 	 1  ala 	 1.000000 
9615 	 C 	 35.854652 	 14.026268 	 55.566418 	 C 	 1  ala 	 1.000000 
9616 	 C 	 35.062553 	 13.754459 	 56.112952 	 C 	 1  ala 	 1.000000 
9617 	 C 	 35.778415 	 14.451154 	 56.066507 	 C 	 1  ala 	 1.000000 
9618 	 C 	 35.120214 	 14.419161 	 55.314346 	 C 	 1  ala 	 1.000000 
9619 	 C 	 35.282980 	 15.276729 	 54.826409 	 C 	 1  ala 	 1.000000 
9620 	 C 	 36.177200 	 15.600847 	 54.517670 	 C 	 1  ala 	 1.000000 
9621 	 C 	 35.702989 	 16.332771 	 55.006967 	 C 	 1  ala 	 1.000000 
9622 	 C 	 35.122963 	 15.957562 	 54.283925 	 C 	 1  ala 	 1.000000 
9623 	 C 	 34.216926 	 15.947164 	 54.706995 	 C 	 1  ala 	 1.000000 
9624 	 C 	 34.769884 	 15.758819 	 55.518638 	 C 	 1  ala 	 1.000000 
9625 	 C 	 34.290131 	 14.996884 	 55.953714 	 C 	 1  ala 	 1.000000 
9626 	 C 	 35.052109 	 15.501186 	 56.360001 	 C 	 1  ala 	 1.000000 
9627 	 C 	 35.015038 	 15.852779 	 57.295420 	 C 	 1  ala 	 1.000000 
9628 	 C 	 34.353441 	 15.104386 	 57.248541 	 C 	 1  ala 	 1.000000 
9629 	 C 	 35.284605 	 15.467954 	 57.275947 	 C 	 1  ala 	 1.000000 
9630 	 C 	 35.583596 	 16.096041 	 56.557539 	 C 	 1  ala 	 1.000000 
9631 	 C 	 35.779576 	 15.385605 	 57.233462 	 C 	 1  ala 	 1.000000 
9632 	 C 	 34.807407 	 15.617611 	 57.266025 	 C 	 1  ala 	 1.000000 
9633 	 C 	 34.861801 	 15.026692 	 56.461130 	 C 	 1  ala 	 1.000000 
9634 	 C 	 35.739356 	 15.211240 	 56.018592 	 C 	 1  ala 	 1.000000 
9635 	 C 	 35.730053 	 15.070401 	 57.008580 	 C 	 1  ala 	 1.000000 
9636 	 C 	 35.690946 	 15.386511 	 56.060664 	 C 	 1  ala 	 1.000000 
9637 	 C 	 35.257545 	 15.413040 	 55.159854 	 C 	 1  ala 	 1.000000 
9638 	 C 	 35.225221 	 15.559422 	 56.148554 	 C 	 1  ala 	 1.000000 
9639 	 C 	 35.438196 	 14.631950 	 56.455862 	 C 	 1  ala 	 1.000000 
9640 	 C 	 34.522830 	 15.034558 	 56.452351 	 C 	 1  ala 	 1.000000 
9641 	 C 	 34.918679 	 15.244800 	 55.558426 	 C 	 1  ala 	 1.000000 
9642 	 C 	 34.813499 	 14.352270 	 55.119874 	 C 	 1  ala 	 1.000000 
9643 	 C 	 34.999589 	 13.692179 	 55.847645 	 C 	 1  ala 	 1.000000 
9644 	 C 	 34.645390 	 13.682166 	 54.912528 	 C 	 1  ala 	 1.000000 
9645 	 C 	 33.931897 	 13.013244 	 55.121025 	 C 	 1  ala 	 1.000000 
9646 	 C 	 33.446753 	 12.832392 	 54.265497 	 C 	 1  ala 	 1.000000 
9647 	 C 	 32.691327 	 12.901224 	 53.613888 	 C 	 1  ala 	 1.000000 
9648 	 C 	 32.150849 	 12.063221 	 53.688951 	 C 	 1  ala 	 1.000000 
9649 	 C 	 32.737720 	 11.624343 	 54.369369 	 C 	 1  ala 	 1.000000 
9650 	 C 	 32.992276 	 11.269675 	 53.469696 	 C 	 1  ala 	 1.000000 
9651 	 C 	 32.650915 	 10.387728 	 53.144670 	 C 	 1  ala 	 1.000000 
9652 	 C 	 32.910746 	 10.832091 	 52.287332 	 C 	 1  ala 	 1.000000 
9653 	 C 	 32.577837 	 10.437469 	 51.430918 	 C 	 1  ala 	 1.000000 
9654 	 C 	 32.940700 	 10.501025 	 52.360590 	 C 	 1  ala 	 1.000000 
9655 	 C 	 33.732906 	 10.755529 	 51.805939 	 C 	 1  ala 	 1.000000 
9656 	 C 	 34.492767 	 11.240561 	 52.238786 	 C 	 1  ala 	 1.000000 
9657 	 C 	 35.001099 	 11.234346 	 53.099925 	 C 	 1  ala 	 1.000000 
9658 	 C 	 34.247337 	 10.589926 	 52.971218 	 C 	 1  ala 	 1.000000 
9659 	 C 	 34.831842 	 11.298000 	 53.367430 	 C 	 1  ala 	 1.000000 
9660 	 C 	 35.771470 	 11.308904 	 53.025407 	 C 	 1  ala 	 1.000000 
9661 	 C 	 35.100102 	 10.580968 	 53.164600 	 C 	 1  ala 	 1.000000 
9662 	 C 	 34.708148 	 11.468732 	 53.405947 	 C 	 1  ala 	 1.000000 
9663 	 C 	 33.904383 	 11.093754 	 53.867848 	 C 	 1  ala 	 1.000000 
9664 	 C 	 33.477385 	 10.734863 	 53.037866 	 C 	 1  ala 	 1.000000 
9665 	 C 	 33.800516 	 11.030242 	 52.138790 	 C 	 1  ala 	 1.000000 
9666 	 C 	 32.842838 	 11.305418 	 52.054353 	 C 	 1  ala 	 1.000000 
9667 	 C 	 32.761161 	 11.339348 	 53.050434 	 C 	 1  ala 	 1.000000 
9668 	 C 	 32.607775 	 11.003738 	 52.121005 	 C 	 1  ala 	 1.000000 
9669 	 C 	 32.467495 	 10.079194 	 51.766688 	 C 	 1  ala 	 1.000000 
9670 	 C 	 31.914555 	 10.859332 	 52.059335 	 C 	 1  ala 	 1.000000 
9671 	 C 	 32.254337 	 11.285364 	 52.897813 	 C 	 1  ala 	 1.000000 
9672 	 C 	 32.951259 	 11.445005 	 52.198660 	 C 	 1  ala 	 1.000000 
9673 	 C 	 32.531635 	 10.716336 	 51.657405 	 C 	 1  ala 	 1.000000 
9674 	 C 	 33.374447 	 10.519736 	 52.158419 	 C 	 1  ala 	 1.000000 
9675 	 C 	 32.865043 	 9.709121 	 51.869612 	 C 	 1  ala 	 1.000000 
9676 	 C 	 33.679494 	 9.645201 	 51.292910 	 C 	 1  ala 	 1.000000 
9677 	 C 	 33.863363 	 8.671241 	 51.160266 	 C 	 1  ala 	 1.000000 
9678 	 C 	 33.222794 	 9.128408 	 51.777250 	 C 	 1  ala 	 1.000000 
9679 	 C 	 33.172401 	 8.711869 	 50.869530 	 C 	 1  ala 	 1.000000 
9680 	 C 	 32.470265 	 8.725971 	 50.157626 	 C 	 1  ala 	 1.000000 
9681 	 C 	 31.766403 	 9.335075 	 49.792153 	 C 	 1  ala 	 1.000000 
9682 	 C 	 32.440714 	 9.854004 	 50.317527 	 C 	 1  ala 	 1.000000 
9683 	 C 	 32.380396 	 9.809179 	 51.314699 	 C 	 1  ala 	 1.000000 
9684 	 C 	 32.492391 	 10.798968 	 51.226527 	 C 	 1  ala 	 1.000000 
9685 	 C 	 32.258732 	 9.875108 	 51.529654 	 C 	 1  ala 	 1.000000 
9686 	 C 	 31.422118 	 10.100513 	 51.030386 	 C 	 1  ala 	 1.000000 
9687 	 C 	 30.556092 	 9.636713 	 51.217174 	 C 	 1  ala 	 1.000000 
9688 	 C 	 30.947231 	 10.555063 	 51.277534 	 C 	 1  ala 	 1.000000 
9689 	 C 	 31.137663 	 10.381881 	 50.311230 	 C 	 1  ala 	 1.000000 
9690 	 C 	 31.130607 	 9.486496 	 50.756468 	 C 	 1  ala 	 1.000000 
9691 	 C 	 31.530153 	 9.741426 	 51.637021 	 C 	 1  ala 	 1.000000 
9692 	 C 	 32.167147 	 9.911568 	 52.388879 	 C 	 1  ala 	 1.000000 
9693 	 C 	 32.340169 	 10.677092 	 53.008585 	 C 	 1  ala 	 1.000000 
9694 	 C 	 32.315681 	 11.607162 	 53.375150 	 C 	 1  ala 	 1.000000 
9695 	 C 	 31.755194 	 10.783373 	 53.460162 	 C 	 1  ala 	 1.000000 
9696 	 C 	 31.337378 	 11.606680 	 53.844343 	 C 	 1  ala 	 1.000000 
9697 	 C 	 32.148706 	 12.007064 	 54.270301 	 C 	 1  ala 	 1.000000 
9698 	 C 	 32.967513 	 11.434997 	 54.318203 	 C 	 1  ala 	 1.000000 
9699 	 C 	 32.656826 	 11.356180 	 53.370964 	 C 	 1  ala 	 1.000000 
9700 	 C 	 33.548154 	 10.916843 	 53.482851 	 C 	 1  ala 	 1.000000 
9701 	 C 	 33.212589 	 10.301599 	 52.769499 	 C 	 1  ala 	 1.000000 
9702 	 C 	 32.411918 	 10.817846 	 53.073497 	 C 	 1  ala 	 1.000000 
9703 	 C 	 31.580282 	 10.271650 	 52.973241 	 C 	 1  ala 	 1.000000 
9704 	 C 	 31.683429 	 10.520144 	 52.010115 	 C 	 1  ala 	 1.000000 
9705 	 C 	 32.004298 	 10.157655 	 52.885126 	 C 	 1  ala 	 1.000000 
9706 	 C 	 32.183196 	 10.848988 	 53.585164 	 C 	 1  ala 	 1.000000 
9707 	 C 	 32.090161 	 11.842009 	 53.657648 	 C 	 1  ala 	 1.000000 
9708 	 C 	 31.635569 	 11.928632 	 54.544125 	 C 	 1  ala 	 1.000000 
9709 	 C 	 30.889257 	 11.370920 	 54.180842 	 C 	 1  ala 	 1.000000 
9710 	 C 	 31.060881 	 11.675171 	 53.243838 	 C 	 1  ala 	 1.000000 
9711 	 C 	 30.544532 	 11.165457 	 52.555670 	 C 	 1  ala 	 1.000000 
9712 	 C 	 30.857765 	 10.755354 	 51.699107 	 C 	 1  ala 	 1.000000 
9713 	 C 	 31.071920 	 10.236526 	 52.526728 	 C 	 1  ala 	 1.000000 
9714 	 C 	 31.791498 	 10.600795 	 51.935529 	 C 	 1  ala 	 1.000000 
9715 	 C 	 32.487538 	 9.991322 	 52.315096 	 C 	 1  ala 	 1.000000 
9716 	 C 	 33.417664 	 9.641400 	 52.426544 	 C 	 1  ala 	 1.000000 
9717 	 C 	 33.657604 	 9.488170 	 51.467925 	 C 	 1  ala 	 1.000000 
9718 	 C 	 32.700398 	 9.338549 	 51.715656 	 C 	 1  ala 	 1.000000 
9719 	 C 	 33.530475 	 9.878170 	 51.575008 	 C 	 1  ala 	 1.000000 
9720 	 C 	 32.840756 	 10.439166 	 51.117219 	 C 	 1  ala 	 1.000000 
9721 	 C 	 32.536953 	 9.491505 	 51.019022 	 C 	 1  ala 	 1.000000 
9722 	 C 	 33.516348 	 9.663918 	 51.124179 	 C 	 1  ala 	 1.000000 
9723 	 C 	 32.887366 	 9.814494 	 51.886877 	 C 	 1  ala 	 1.000000 
9724 	 C 	 33.505835 	 9.714055 	 51.107514 	 C 	 1  ala 	 1.000000 
9725 	 C 	 32.702537 	 9.197918 	 51.404691 	 C 	 1  ala 	 1.000000 
9726 	 C 	 32.871250 	 9.403781 	 50.440763 	 C 	 1  ala 	 1.000000 
9727 	 C 	 32.853006 	 10.087521 	 49.711265 	 C 	 1  ala 	 1.000000 
9728 	 C 	 33.581279 	 9.661266 	 50.247852 	 C 	 1  ala 	 1.000000 
9729 	 C 	 33.887277 	 9.168398 	 51.062374 	 C 	 1  ala 	 1.000000 
9730 	 C 	 34.297563 	 9.934587 	 50.567783 	 C 	 1  ala 	 1.000000 
9731 	 C 	 34.538995 	 10.725939 	 51.129453 	 C 	 1  ala 	 1.000000 
9732 	 C 	 33.695988 	 10.202729 	 51.254312 	 C 	 1  ala 	 1.000000 
9733 	 C 	 33.035256 	 10.854354 	 51.626893 	 C 	 1  ala 	 1.000000 
9734 	 C 	 32.927829 	 9.922783 	 51.279569 	 C 	 1  ala 	 1.000000 
9735 	 C 	 32.374354 	 9.762175 	 52.096803 	 C 	 1  ala 	 1.000000 
9736 	 C 	 33.074450 	 9.969636 	 52.780049 	 C 	 1  ala 	 1.000000 
9737 	 C 	 32.639471 	 10.296067 	 51.940861 	 C 	 1  ala 	 1.000000 
9738 	 C 	 32.394648 	 9.361691 	 51.682008 	 C 	 1  ala 	 1.000000 
9739 	 C 	 31.831896 	 9.802202 	 52.381480 	 C 	 1  ala 	 1.000000 
9740 	 C 	 31.576990 	 10.008271 	 51.436727 	 C 	 1  ala 	 1.000000 
9741 	 C 	 30.614645 	 9.988313 	 51.707823 	 C 	 1  ala 	 1.000000 
9742 	 C 	 30.356236 	 10.891582 	 51.365286 	 C 	 1  ala 	 1.000000 
9743 	 C 	 30.116058 	 10.236130 	 50.649257 	 C 	 1  ala 	 1.000000 
9744 	 C 	 29.441514 	 9.512509 	 50.503095 	 C 	 1  ala 	 1.000000 
9745 	 C 	 29.993556 	 9.807507 	 51.282983 	 C 	 1  ala 	 1.000000 
9746 	 C 	 30.768405 	 9.266953 	 50.955247 	 C 	 1  ala 	 1.000000 
9747 	 C 	 31.671501 	 9.687983 	 51.039811 	 C 	 1  ala 	 1.000000 
9748 	 C 	 31.452522 	 10.573377 	 51.449843 	 C 	 1  ala 	 1.000000 
9749 	 C 	 32.074819 	 11.325690 	 51.233577 	 C 	 1  ala 	 1.000000 
9750 	 C 	 31.893113 	 11.567445 	 50.280405 	 C 	 1  ala 	 1.000000 
9751 	 C 	 32.130893 	 10.907196 	 49.567992 	 C 	 1  ala 	 1.000000 
9752 	 C 	 32.769288 	 11.509162 	 50.047668 	 C 	 1  ala 	 1.000000 
9753 	 C 	 33.055089 	 10.676677 	 50.522311 	 C 	 1  ala 	 1.000000 
9754 	 C 	 34.031890 	 10.659200 	 50.308875 	 C 	 1  ala 	 1.000000 
9755 	 C 	 34.082273 	 9.674516 	 50.141967 	 C 	 1  ala 	 1.000000 
9756 	 C 	 33.629849 	 8.823447 	 50.408415 	 C 	 1  ala 	 1.000000 
9757 	 C 	 32.888437 	 8.865822 	 49.738704 	 C 	 1  ala 	 1.000000 
9758 	 C 	 31.908619 	 8.912599 	 49.544366 	 C 	 1  ala 	 1.000000 
9759 	 C 	 32.460238 	 8.775631 	 50.367140 	 C 	 1  ala 	 1.000000 
9760 	 C 	 31.810310 	 9.501154 	 50.140843 	 C 	 1  ala 	 1.000000 
9761 	 C 	 32.035905 	 10.475285 	 50.154127 	 C 	 1  ala 	 1.000000 
9762 	 C 	 31.786493 	 10.981097 	 50.979928 	 C 	 1  ala 	 1.000000 
9763 	 C 	 31.991681 	 11.517443 	 50.161251 	 C 	 1  ala 	 1.000000 
9764 	 C 	 32.656128 	 11.160354 	 49.504747 	 C 	 1  ala 	 1.000000 
9765 	 C 	 31.748377 	 11.115196 	 49.921817 	 C 	 1  ala 	 1.000000 
9766 	 C 	 32.056630 	 11.830972 	 49.295204 	 C 	 1  ala 	 1.000000 
9767 	 C 	 32.518164 	 11.585412 	 48.442745 	 C 	 1  ala 	 1.000000 
9768 	 C 	 33.062697 	 10.772665 	 48.235562 	 C 	 1  ala 	 1.000000 
9769 	 C 	 32.893651 	 10.183133 	 49.025420 	 C 	 1  ala 	 1.000000 
9770 	 C 	 32.099576 	 9.629311 	 49.275869 	 C 	 1  ala 	 1.000000 
9771 	 C 	 32.848263 	 9.236861 	 48.741594 	 C 	 1  ala 	 1.000000 
9772 	 C 	 33.413743 	 9.658562 	 48.032791 	 C 	 1  ala 	 1.000000 
9773 	 C 	 33.800250 	 8.738761 	 47.965132 	 C 	 1  ala 	 1.000000 
9774 	 C 	 32.854516 	 8.546149 	 48.226833 	 C 	 1  ala 	 1.000000 
9775 	 C 	 33.197237 	 9.238652 	 47.592024 	 C 	 1  ala 	 1.000000 
9776 	 C 	 32.678361 	 10.005095 	 47.213431 	 C 	 1  ala 	 1.000000 
9777 	 C 	 32.099977 	 10.798191 	 47.404403 	 C 	 1  ala 	 1.000000 
9778 	 C 	 31.161534 	 10.976251 	 47.700407 	 C 	 1  ala 	 1.000000 
9779 	 C 	 31.934666 	 10.349734 	 47.799112 	 C 	 1  ala 	 1.000000 
9780 	 C 	 32.034149 	 9.549711 	 48.390777 	 C 	 1  ala 	 1.000000 
9781 	 C 	 32.061914 	 9.104102 	 49.285574 	 C 	 1  ala 	 1.000000 
9782 	 C 	 31.910763 	 9.740427 	 48.529106 	 C 	 1  ala 	 1.000000 
9783 	 C 	 31.300588 	 9.433481 	 49.259498 	 C 	 1  ala 	 1.000000 
9784 	 C 	 30.693100 	 8.683905 	 49.522354 	 C 	 1  ala 	 1.000000 
9785 	 C 	 31.595925 	 8.274550 	 49.390687 	 C 	 1  ala 	 1.000000 
9786 	 C 	 31.375482 	 8.459738 	 48.433028 	 C 	 1  ala 	 1.000000 
9787 	 C 	 31.037806 	 9.388932 	 48.282785 	 C 	 1  ala 	 1.000000 
9788 	 C 	 31.938187 	 8.991399 	 48.105919 	 C 	 1  ala 	 1.000000 
9789 	 C 	 32.661006 	 8.594982 	 47.539892 	 C 	 1  ala 	 1.000000 
9790 	 C 	 31.715050 	 8.888100 	 47.401152 	 C 	 1  ala 	 1.000000 
9791 	 C 	 31.844836 	 9.754460 	 47.883414 	 C 	 1  ala 	 1.000000 
9792 	 C 	 31.078094 	 9.370715 	 47.368782 	 C 	 1  ala 	 1.000000 
9793 	 C 	 30.733381 	 8.782781 	 48.100565 	 C 	 1  ala 	 1.000000 
9794 	 C 	 30.291189 	 8.974932 	 47.224468 	 C 	 1  ala 	 1.000000 
9795 	 C 	 29.626571 	 9.238043 	 47.923794 	 C 	 1  ala 	 1.000000 
9796 	 C 	 29.865001 	 9.783749 	 48.727134 	 C 	 1  ala 	 1.000000 
9797 	 C 	 29.730738 	 10.767851 	 48.843398 	 C 	 1  ala 	 1.000000 
9798 	 C 	 30.416200 	 10.241346 	 49.346323 	 C 	 1  ala 	 1.000000 
9799 	 C 	 30.330288 	 9.953384 	 50.300103 	 C 	 1  ala 	 1.000000 
9800 	 C 	 29.399560 	 10.234402 	 50.534142 	 C 	 1  ala 	 1.000000 
9801 	 C 	 28.470325 	 10.265454 	 50.165959 	 C 	 1  ala 	 1.000000 
9802 	 C 	 28.048462 	 9.435002 	 50.529802 	 C 	 1  ala 	 1.000000 
9803 	 C 	 28.082145 	 10.406858 	 50.762956 	 C 	 1  ala 	 1.000000 
9804 	 C 	 28.415740 	 11.039507 	 51.461862 	 C 	 1  ala 	 1.000000 
9805 	 C 	 28.598713 	 11.987728 	 51.202250 	 C 	 1  ala 	 1.000000 
9806 	 C 	 28.443166 	 11.247624 	 51.856506 	 C 	 1  ala 	 1.000000 
9807 	 C 	 28.911382 	 11.186180 	 50.975032 	 C 	 1  ala 	 1.000000 
9808 	 C 	 29.451909 	 11.379658 	 51.793809 	 C 	 1  ala 	 1.000000 
9809 	 C 	 28.853557 	 12.163724 	 51.628841 	 C 	 1  ala 	 1.000000 
9810 	 C 	 28.792339 	 11.215106 	 51.318396 	 C 	 1  ala 	 1.000000 
9811 	 C 	 27.800913 	 11.309246 	 51.409024 	 C 	 1  ala 	 1.000000 
9812 	 C 	 27.379591 	 11.699736 	 52.227563 	 C 	 1  ala 	 1.000000 
9813 	 C 	 28.025799 	 12.449579 	 52.085610 	 C 	 1  ala 	 1.000000 
9814 	 C 	 28.695097 	 11.782704 	 52.413203 	 C 	 1  ala 	 1.000000 
9815 	 C 	 28.751176 	 12.050756 	 51.451432 	 C 	 1  ala 	 1.000000 
9816 	 C 	 27.780964 	 11.962879 	 51.677191 	 C 	 1  ala 	 1.000000 
9817 	 C 	 27.709584 	 10.966134 	 51.714651 	 C 	 1  ala 	 1.000000 
9818 	 C 	 26.720871 	 10.828007 	 51.772686 	 C 	 1  ala 	 1.000000 
9819 	 C 	 26.644231 	 11.822344 	 51.699061 	 C 	 1  ala 	 1.000000 
9820 	 C 	 25.833629 	 12.295420 	 51.353918 	 C 	 1  ala 	 1.000000 
9821 	 C 	 25.823753 	 11.401649 	 50.905503 	 C 	 1  ala 	 1.000000 
9822 	 C 	 26.231922 	 10.597943 	 51.338464 	 C 	 1  ala 	 1.000000 
9823 	 C 	 25.539633 	 11.029566 	 50.760158 	 C 	 1  ala 	 1.000000 
9824 	 C 	 25.216571 	 10.170429 	 51.157039 	 C 	 1  ala 	 1.000000 
9825 	 C 	 25.932285 	 10.305948 	 50.471921 	 C 	 1  ala 	 1.000000 
9826 	 C 	 26.304754 	 10.899520 	 49.758521 	 C 	 1  ala 	 1.000000 
9827 	 C 	 26.663702 	 10.212446 	 49.126789 	 C 	 1  ala 	 1.000000 
9828 	 C 	 26.493493 	 10.866494 	 49.863843 	 C 	 1  ala 	 1.000000 
9829 	 C 	 26.023477 	 10.481119 	 50.657928 	 C 	 1  ala 	 1.000000 
9830 	 C 	 26.895889 	 10.166801 	 51.032230 	 C 	 1  ala 	 1.000000 
9831 	 C 	 26.792215 	 11.098771 	 51.379625 	 C 	 1  ala 	 1.000000 
9832 	 C 	 26.566511 	 10.266250 	 50.873693 	 C 	 1  ala 	 1.000000 
9833 	 C 	 26.787947 	 10.464953 	 51.828409 	 C 	 1  ala 	 1.000000 
9834 	 C 	 26.921693 	 10.366461 	 50.842300 	 C 	 1  ala 	 1.000000 
9835 	 C 	 26.385695 	 9.991379 	 51.598620 	 C 	 1  ala 	 1.000000 
9836 	 C 	 26.808703 	 10.313094 	 52.445711 	 C 	 1  ala 	 1.000000 
9837 	 C 	 25.871161 	 10.460219 	 52.130481 	 C 	 1  ala 	 1.000000 
9838 	 C 	 25.292234 	 10.554938 	 51.320622 	 C 	 1  ala 	 1.000000 
9839 	 C 	 25.630575 	 11.295938 	 50.740584 	 C 	 1  ala 	 1.000000 
9840 	 C 	 25.901923 	 12.196039 	 50.399719 	 C 	 1  ala 	 1.000000 
9841 	 C 	 26.671097 	 12.716500 	 50.028919 	 C 	 1  ala 	 1.000000 
9842 	 C 	 27.109655 	 13.376612 	 50.638771 	 C 	 1  ala 	 1.000000 
9843 	 C 	 26.372743 	 13.813887 	 51.154281 	 C 	 1  ala 	 1.000000 
9844 	 C 	 26.279236 	 14.313573 	 52.015425 	 C 	 1  ala 	 1.000000 
9845 	 C 	 26.270197 	 14.203048 	 53.009258 	 C 	 1  ala 	 1.000000 
9846 	 C 	 26.150606 	 13.615753 	 53.809746 	 C 	 1  ala 	 1.000000 
9847 	 C 	 25.685625 	 14.150728 	 54.515149 	 C 	 1  ala 	 1.000000 
9848 	 C 	 26.126112 	 13.509523 	 55.143502 	 C 	 1  ala 	 1.000000 
9849 	 C 	 27.032225 	 13.924503 	 55.061331 	 C 	 1  ala 	 1.000000 
9850 	 C 	 26.483481 	 14.737139 	 55.257553 	 C 	 1  ala 	 1.000000 
9851 	 C 	 27.353865 	 15.176076 	 55.480634 	 C 	 1  ala 	 1.000000 
9852 	 C 	 27.201323 	 15.939804 	 54.853379 	 C 	 1  ala 	 1.000000 
9853 	 C 	 27.251631 	 15.576313 	 55.783617 	 C 	 1  ala 	 1.000000 
9854 	 C 	 27.258171 	 14.790176 	 55.165600 	 C 	 1  ala 	 1.000000 
9855 	 C 	 27.016621 	 15.285147 	 56.000260 	 C 	 1  ala 	 1.000000 
9856 	 C 	 27.398859 	 16.156004 	 56.309291 	 C 	 1  ala 	 1.000000 
9857 	 C 	 27.878182 	 15.562761 	 56.956062 	 C 	 1  ala 	 1.000000 
9858 	 C 	 27.240591 	 16.228250 	 57.344135 	 C 	 1  ala 	 1.000000 
9859 	 C 	 26.720341 	 16.533542 	 56.546553 	 C 	 1  ala 	 1.000000 
9860 	 C 	 26.479856 	 16.738277 	 57.495369 	 C 	 1  ala 	 1.000000 
9861 	 C 	 27.111527 	 17.391144 	 57.077330 	 C 	 1  ala 	 1.000000 
9862 	 C 	 27.316334 	 17.290813 	 58.050977 	 C 	 1  ala 	 1.000000 
9863 	 C 	 27.446641 	 18.060812 	 58.675575 	 C 	 1  ala 	 1.000000 
9864 	 C 	 27.855860 	 17.459291 	 57.989489 	 C 	 1  ala 	 1.000000 
9865 	 C 	 28.251100 	 16.562654 	 57.789925 	 C 	 1  ala 	 1.000000 
9866 	 C 	 28.490055 	 16.162821 	 56.905032 	 C 	 1  ala 	 1.000000 
9867 	 C 	 28.622427 	 16.662344 	 56.048905 	 C 	 1  ala 	 1.000000 
9868 	 C 	 28.372773 	 16.089677 	 56.829754 	 C 	 1  ala 	 1.000000 
9869 	 C 	 28.330883 	 15.658801 	 55.928315 	 C 	 1  ala 	 1.000000 
9870 	 C 	 28.053419 	 15.819544 	 54.981122 	 C 	 1  ala 	 1.000000 
9871 	 C 	 27.161122 	 16.256376 	 54.867180 	 C 	 1  ala 	 1.000000 
9872 	 C 	 26.914379 	 16.515340 	 55.801020 	 C 	 1  ala 	 1.000000 
9873 	 C 	 26.682472 	 15.625903 	 55.407167 	 C 	 1  ala 	 1.000000 
9874 	 C 	 27.386539 	 15.374417 	 54.743054 	 C 	 1  ala 	 1.000000 
9875 	 C 	 28.198290 	 14.818954 	 54.923388 	 C 	 1  ala 	 1.000000 
9876 	 C 	 28.860681 	 14.674298 	 55.658447 	 C 	 1  ala 	 1.000000 
9877 	 C 	 29.126922 	 13.870072 	 56.189801 	 C 	 1  ala 	 1.000000 
9878 	 C 	 29.571796 	 14.656755 	 55.761764 	 C 	 1  ala 	 1.000000 
9879 	 C 	 29.386853 	 15.224977 	 54.959941 	 C 	 1  ala 	 1.000000 
9880 	 C 	 28.422460 	 15.086000 	 55.184953 	 C 	 1  ala 	 1.000000 
9881 	 C 	 28.976341 	 14.397080 	 55.652505 	 C 	 1  ala 	 1.000000 
9882 	 C 	 29.242501 	 14.452335 	 54.690161 	 C 	 1  ala 	 1.000000 
9883 	 C 	 29.710911 	 13.661308 	 54.296626 	 C 	 1  ala 	 1.000000 
9884 	 C 	 29.821229 	 14.443461 	 54.909870 	 C 	 1  ala 	 1.000000 
9885 	 C 	 30.557145 	 15.072444 	 54.659256 	 C 	 1  ala 	 1.000000 
9886 	 C 	 31.061934 	 14.209204 	 54.657215 	 C 	 1  ala 	 1.000000 
9887 	 C 	 32.050708 	 14.068115 	 54.706405 	 C 	 1  ala 	 1.000000 
9888 	 C 	 32.851404 	 14.086515 	 54.107616 	 C 	 1  ala 	 1.000000 
9889 	 C 	 32.258924 	 14.835978 	 53.812194 	 C 	 1  ala 	 1.000000 
9890 	 C 	 32.426680 	 13.887448 	 54.080799 	 C 	 1  ala 	 1.000000 
9891 	 C 	 31.537866 	 13.525680 	 54.362105 	 C 	 1  ala 	 1.000000 
9892 	 C 	 31.497941 	 12.994179 	 55.208221 	 C 	 1  ala 	 1.000000 
9893 	 C 	 31.516463 	 13.967782 	 55.435718 	 C 	 1  ala 	 1.000000 
9894 	 C 	 32.431782 	 13.590806 	 55.294017 	 C 	 1  ala 	 1.000000 
9895 	 C 	 31.467634 	 13.856170 	 55.293899 	 C 	 1  ala 	 1.000000 
9896 	 C 	 32.178754 	 13.919480 	 54.593685 	 C 	 1  ala 	 1.000000 
9897 	 C 	 32.900905 	 14.116287 	 55.256832 	 C 	 1  ala 	 1.000000 
9898 	 C 	 33.271447 	 13.863524 	 54.363071 	 C 	 1  ala 	 1.000000 
9899 	 C 	 33.884340 	 13.157651 	 54.718184 	 C 	 1  ala 	 1.000000 
9900 	 C 	 32.943154 	 12.990277 	 54.424665 	 C 	 1  ala 	 1.000000 
9901 	 C 	 32.218108 	 13.426219 	 54.957828 	 C 	 1  ala 	 1.000000 
9902 	 C 	 32.972201 	 13.566584 	 55.599421 	 C 	 1  ala 	 1.000000 
9903 	 C 	 33.473745 	 14.024464 	 54.865392 	 C 	 1  ala 	 1.000000 
9904 	 C 	 33.352631 	 15.017097 	 54.868719 	 C 	 1  ala 	 1.000000 
9905 	 C 	 32.738901 	 15.548761 	 54.285051 	 C 	 1  ala 	 1.000000 
9906 	 C 	 32.897389 	 15.413260 	 53.307032 	 C 	 1  ala 	 1.000000 
9907 	 C 	 32.097999 	 15.719783 	 53.823772 	 C 	 1  ala 	 1.000000 
9908 	 C 	 32.225549 	 16.555694 	 53.289933 	 C 	 1  ala 	 1.000000 
9909 	 C 	 31.692834 	 16.941285 	 52.536584 	 C 	 1  ala 	 1.000000 
9910 	 C 	 31.972820 	 17.808077 	 52.123935 	 C 	 1  ala 	 1.000000 
9911 	 C 	 32.096036 	 17.046508 	 51.487673 	 C 	 1  ala 	 1.000000 
9912 	 C 	 32.788626 	 17.063350 	 50.766538 	 C 	 1  ala 	 1.000000 
9913 	 C 	 32.637687 	 17.041661 	 51.754843 	 C 	 1  ala 	 1.000000 
9914 	 C 	 32.070638 	 16.228084 	 51.883476 	 C 	 1  ala 	 1.000000 
9915 	 C 	 31.410390 	 16.940458 	 52.121373 	 C 	 1  ala 	 1.000000 
9916 	 C 	 31.190739 	 16.630549 	 51.196327 	 C 	 1  ala 	 1.000000 
9917 	 C 	 31.340895 	 17.314192 	 51.910529 	 C 	 1  ala 	 1.000000 
9918 	 C 	 31.689829 	 16.388919 	 51.761821 	 C 	 1  ala 	 1.000000 
9919 	 C 	 32.303625 	 17.154757 	 51.953516 	 C 	 1  ala 	 1.000000 
9920 	 C 	 31.905519 	 17.381962 	 51.064758 	 C 	 1  ala 	 1.000000 
9921 	 C 	 31.709825 	 18.259111 	 51.503294 	 C 	 1  ala 	 1.000000 
9922 	 C 	 31.645809 	 17.686354 	 52.320516 	 C 	 1  ala 	 1.000000 
9923 	 C 	 31.741068 	 18.319141 	 53.088960 	 C 	 1  ala 	 1.000000 
9924 	 C 	 32.436704 	 19.008554 	 52.886969 	 C 	 1  ala 	 1.000000 
9925 	 C 	 32.200355 	 19.690948 	 52.195248 	 C 	 1  ala 	 1.000000 
9926 	 C 	 32.759953 	 18.904288 	 51.934447 	 C 	 1  ala 	 1.000000 
9927 	 C 	 33.743376 	 18.966276 	 52.104848 	 C 	 1  ala 	 1.000000 
9928 	 C 	 34.282593 	 18.659848 	 52.889288 	 C 	 1  ala 	 1.000000 
9929 	 C 	 33.363801 	 18.471883 	 53.236407 	 C 	 1  ala 	 1.000000 
9930 	 C 	 34.088472 	 18.618411 	 52.563071 	 C 	 1  ala 	 1.000000 
9931 	 C 	 34.562454 	 18.897720 	 53.398132 	 C 	 1  ala 	 1.000000 
9932 	 C 	 35.337670 	 18.364959 	 53.058712 	 C 	 1  ala 	 1.000000 
9933 	 C 	 36.220740 	 18.119999 	 53.458940 	 C 	 1  ala 	 1.000000 
9934 	 C 	 36.954212 	 18.799692 	 53.464858 	 C 	 1  ala 	 1.000000 
9935 	 C 	 36.700140 	 18.259683 	 54.267253 	 C 	 1  ala 	 1.000000 
9936 	 C 	 36.606481 	 17.571440 	 53.547843 	 C 	 1  ala 	 1.000000 
9937 	 C 	 36.974019 	 16.666085 	 53.760558 	 C 	 1  ala 	 1.000000 
9938 	 C 	 37.115229 	 15.956493 	 54.450876 	 C 	 1  ala 	 1.000000 
9939 	 C 	 36.594575 	 16.416478 	 53.731617 	 C 	 1  ala 	 1.000000 
9940 	 C 	 35.941405 	 17.066804 	 53.343745 	 C 	 1  ala 	 1.000000 
9941 	 C 	 36.739240 	 17.118566 	 53.944395 	 C 	 1  ala 	 1.000000 
9942 	 C 	 36.032095 	 17.795986 	 54.146999 	 C 	 1  ala 	 1.000000 
9943 	 C 	 35.505195 	 17.043655 	 53.751558 	 C 	 1  ala 	 1.000000 
9944 	 C 	 34.672805 	 16.638063 	 53.373905 	 C 	 1  ala 	 1.000000 
9945 	 C 	 33.771657 	 16.664110 	 52.941177 	 C 	 1  ala 	 1.000000 
9946 	 C 	 34.701315 	 16.778539 	 53.291379 	 C 	 1  ala 	 1.000000 
9947 	 C 	 34.647784 	 17.738820 	 53.017529 	 C 	 1  ala 	 1.000000 
9948 	 C 	 34.575595 	 18.650799 	 53.421366 	 C 	 1  ala 	 1.000000 
9949 	 C 	 34.912879 	 18.200818 	 52.594470 	 C 	 1  ala 	 1.000000 
9950 	 C 	 35.439869 	 19.040657 	 52.464269 	 C 	 1  ala 	 1.000000 
9951 	 C 	 35.367373 	 19.931878 	 52.016530 	 C 	 1  ala 	 1.000000 
9952 	 C 	 36.100543 	 20.356061 	 52.548066 	 C 	 1  ala 	 1.000000 
9953 	 C 	 36.896618 	 19.757435 	 52.459113 	 C 	 1  ala 	 1.000000 
9954 	 C 	 36.676498 	 20.708995 	 52.244447 	 C 	 1  ala 	 1.000000 
9955 	 C 	 36.007852 	 20.710757 	 52.988025 	 C 	 1  ala 	 1.000000 
9956 	 C 	 35.564296 	 20.065608 	 53.610152 	 C 	 1  ala 	 1.000000 
9957 	 C 	 35.743378 	 19.851384 	 52.649924 	 C 	 1  ala 	 1.000000 
9958 	 C 	 36.619847 	 19.547031 	 52.276866 	 C 	 1  ala 	 1.000000 
9959 	 C 	 35.658230 	 19.379569 	 52.059494 	 C 	 1  ala 	 1.000000 
9960 	 C 	 34.667952 	 19.497824 	 51.986250 	 C 	 1  ala 	 1.000000 
9961 	 C 	 35.128055 	 18.611979 	 52.046123 	 C 	 1  ala 	 1.000000 
9962 	 C 	 36.097666 	 18.840263 	 52.134111 	 C 	 1  ala 	 1.000000 
9963 	 C 	 36.761027 	 18.762705 	 52.878380 	 C 	 1  ala 	 1.000000 
9964 	 C 	 36.196307 	 18.002793 	 53.200287 	 C 	 1  ala 	 1.000000 
9965 	 C 	 36.206655 	 18.043524 	 52.201171 	 C 	 1  ala 	 1.000000 
9966 	 C 	 36.089306 	 18.667917 	 51.428925 	 C 	 1  ala 	 1.000000 
9967 	 C 	 36.533857 	 17.819188 	 51.142509 	 C 	 1  ala 	 1.000000 
9968 	 C 	 36.875706 	 17.198252 	 51.847901 	 C 	 1  ala 	 1.000000 
9969 	 C 	 36.998513 	 17.559831 	 52.772119 	 C 	 1  ala 	 1.000000 
9970 	 C 	 37.778387 	 17.308908 	 52.198678 	 C 	 1  ala 	 1.000000 
9971 	 C 	 38.441637 	 17.639375 	 51.527194 	 C 	 1  ala 	 1.000000 
9972 	 C 	 37.622237 	 17.266891 	 51.962899 	 C 	 1  ala 	 1.000000 
9973 	 C 	 37.311958 	 17.031294 	 51.041910 	 C 	 1  ala 	 1.000000 
9974 	 C 	 37.553983 	 17.827407 	 50.487269 	 C 	 1  ala 	 1.000000 
9975 	 C 	 37.404467 	 17.066943 	 49.855336 	 C 	 1  ala 	 1.000000 
9976 	 C 	 37.831726 	 17.270020 	 50.736364 	 C 	 1  ala 	 1.000000 
9977 	 C 	 38.402282 	 16.475519 	 50.528436 	 C 	 1  ala 	 1.000000 
9978 	 C 	 38.984133 	 16.311152 	 51.324950 	 C 	 1  ala 	 1.000000 
9979 	 C 	 39.165096 	 15.459141 	 51.816203 	 C 	 1  ala 	 1.000000 
9980 	 C 	 38.979902 	 14.919754 	 52.637644 	 C 	 1  ala 	 1.000000 
9981 	 C 	 38.413578 	 14.113989 	 52.464383 	 C 	 1  ala 	 1.000000 
9982 	 C 	 38.713473 	 13.749886 	 53.346138 	 C 	 1  ala 	 1.000000 
9983 	 C 	 38.812758 	 13.944442 	 54.321992 	 C 	 1  ala 	 1.000000 
9984 	 C 	 38.087055 	 14.268513 	 54.928897 	 C 	 1  ala 	 1.000000 
9985 	 C 	 38.480409 	 14.595330 	 55.788236 	 C 	 1  ala 	 1.000000 
9986 	 C 	 38.819140 	 14.940808 	 54.913075 	 C 	 1  ala 	 1.000000 
9987 	 C 	 37.850481 	 14.744349 	 54.761076 	 C 	 1  ala 	 1.000000 
9988 	 C 	 38.131135 	 13.951831 	 55.302510 	 C 	 1  ala 	 1.000000 
9989 	 C 	 37.707648 	 13.985906 	 54.397248 	 C 	 1  ala 	 1.000000 
9990 	 C 	 37.536556 	 14.926038 	 54.692003 	 C 	 1  ala 	 1.000000 
9991 	 C 	 36.915107 	 15.332883 	 54.022467 	 C 	 1  ala 	 1.000000 
9992 	 C 	 36.993820 	 14.674352 	 54.770893 	 C 	 1  ala 	 1.000000 
9993 	 C 	 37.362434 	 13.936582 	 54.205368 	 C 	 1  ala 	 1.000000 
9994 	 C 	 37.562523 	 14.821334 	 53.784444 	 C 	 1  ala 	 1.000000 
9995 	 C 	 37.222250 	 13.909161 	 53.556073 	 C 	 1  ala 	 1.000000 
9996 	 C 	 37.798942 	 13.465953 	 54.242363 	 C 	 1  ala 	 1.000000 
9997 	 C 	 38.463930 	 12.744719 	 54.436304 	 C 	 1  ala 	 1.000000 
9998 	 C 	 39.456065 	 12.868431 	 54.417241 	 C 	 1  ala 	 1.000000 
9999 	 C 	 38.543950 	 13.167635 	 54.697461 	 C 	 1  ala 	 1.000000 
10000 	 C 	 39.273411 	 13.813413 	 54.471947 	 C 	 1  ala 	 1.000000 
@<TRIPOS>BOND
1 	 1 	 2 	 1 
2 	 2 	 3 	 1 
3 	 3 	 4 	 1 
4 	 4 	 5 	 1 
5 	 5 	 6 	 1 
6 	 6 	 7 	 1 
7 	 7 	 8 	 1 
8 	 8 	 9 	 1 
9 	 9 	 10 	 1 
10 	 10 	 11 	 1 
11 	 11 	 12 	 1 
12 	 12 	 13 	 1 
13 	 13 	 14 	 1 
14 	 14 	 15 	 1 
15 	 15 	 16 	 1 
16 	 16 	 17 	 1 
17 	 17 	 18 	 1 
18 	 18 	 19 	 1 
19 	 19 	 20 	 1 
20 	 20 	 21 	 1 
21 	 21 	 22 	 1 
22 	 22 	 23 	 1 
23 	 23 	 24 	 1 
24 	 24 	 25 	 1 
25 	 25 	 26 	 1 
26 	 26 	 27 	 1 
27 	 27 	 28 	 1 
28 	 28 	 29 	 1 
29 	 29 	 30 	 1 
30 	 30 	 31 	 1 
31 	 31 	 32 	 1 
32 	 32 	 33 	 1 
33 	 33 	 34 	 1 
34 	 34 	 35 	 1 
35 	 35 	 36 	 1 
36 	 36 	 37 	 1 
37 	 37 	 38 	 1 
38 	 38 	 39 	 1 
39 	 39 	 40 	 1 
40 	 40 	 41 	 1 
41 	 41 	 42 	 1 
42 	 42 	 43 	 1 
43 	 43 	 44 	 1 
44 	 44 	 45 	 1 
45 	 45 	 46 	 1 
46 	 46 	 47 	 1 
47 	 47 	 48 	 1 
48 	 48 	 49 	 1 
49 	 49 	 50 	 1 
50 	 50 	 51 	 1 
51 	 51 	 52 	 1 
52 	 52 	 53 	 1 
53 	 53 	 54 	 1 
54 	 54 	 55 	 1 
55 	 55 	 56 	 1 
56 	 56 	 57 	 1 
57 	 57 	 58 	 1 
58 	 58 	 59 	 1 
59 	 59 	 60 	 1 
60 	 60 	 61 	 1 
61 	 61 	 62 	 1 
62 	 62 	 63 	 1 
63 	 63 	 64 	 1 
64 	 64 	 65 	 1 
65 	 65 	 66 	 1 
66 	 66 	 67 	 1 
67 	 67 	 68 	 1 
68 	 68 	 69 	 1 
69 	 69 	 70 	 1 
70 	 70 	 71 	 1 
71 	 71 	 72 	 1 
72 	 72 	 73 	 1 
73 	 73 	 74 	 1 
74 	 74 	 75 	 1 
75 	 75 	 76 	 1 
76 	 76 	 77 	 1 
77 	 77 	 78 	 1 
78 	 78 	 79 	 1 
79 	 79 	 80 	 1 
80 	 80 	 81 	 1 
81 	 81 	 82 	 1 
82 	 82 	 83 	 1 
83 	 83 	 84 	 1 
84 	 84 	 85 	 1 
85 	 85 	 86 	 1 
86 	 86 	 87 	 1 
87 	 87 	 88 	 1 
88 	 88 	 89 	 1 
89 	 89 	 90 	 1 
90 	 90 	 91 	 1 
91 	 91 	 92 	 1 
92 	 92 	 93 	 1 
93 	 93 	 94 	 1 
94 	 94 	 95 	 1 
95 	 95 	 96 	 1 
96 	 96 	 97 	 1 
97 	 97 	 98 	 1 
98 	 98 	 99 	 1 
99 	 99 	 100 	 1 
100 	 100 	 101 	 1 
101 	 101 	 102 	 1 
102 	 102 	 103 	 1 
103 	 103 	 104 	 1 
104 	 104 	 105 	 1 
105 	 105 	 106 	 1 
106 	 106 	 107 	 1 
107 	 107 	 108 	 1 
108 	 108 	 109 	 1 
109 	 109 	 110 	 1 
110 	 110 	 111 	 1 
111 	 111 	 112 	 1 
112 	 112 	 113 	 1 
113 	 113 	 114 	 1 
114 	 114 	 115 	 1 
115 	 115 	 116 	 1 
116 	 116 	 117 	 1 
117 	 117 	 118 	 1 
118 	 118 	 119 	 1 
119 	 119 	 120 	 1 
120 	 120 	 121 	 1 
121 	 121 	 122 	 1 
122 	 122 	 123 	 1 
123 	 123 	 124 	 1 
124 	 124 	 125 	 1 
125 	 125 	 126 	 1 
126 	 126 	 127 	 1 
127 	 127 	 128 	 1 
128 	 128 	 129 	 1 
129 	 129 	 130 	 1 
130 	 130 	 131 	 1 
131 	 131 	 132 	 1 
132 	 132 	 133 	 1 
133 	 133 	 134 	 1 
134 	 134 	 135 	 1 
135 	 135 	 136 	 1 
136 	 136 	 137 	 1 
137 	 137 	 138 	 1 
138 	 138 	 139 	 1 
139 	 139 	 140 	 1 
140 	 140 	 141 	 1 
141 	 141 	 142 	 1 
142 	 142 	 143 	 1 
143 	 143 	 144 	 1 
144 	 144 	 145 	 1 
145 	 145 	 146 	 1 
146 	 146 	 147 	 1 
147 	 147 	 148 	 1 
148 	 148 	 149 	 1 
149 	 149 	 150 	 1 
150 	 150 	 151 	 1 
151 	 151 	 152 	 1 
152 	 152 	 153 	 1 
153 	 153 	 154 	 1 
154 	 154 	 155 	 1 
155 	 155 	 156 	 1 
156 	 156 	 157 	 1 
157 	 157 	 158 	 1 
158 	 158 	 159 	 1 
159 	 159 	 160 	 1 
160 	 160 	 161 	 1 
161 	 161 	 162 	 1 
162 	 162 	 163 	 1 
163 	 163 	 164 	 1 
164 	 164 	 165 	 1 
165 	 165 	 166 	 1 
166 	 166 	 167 	 1 
167 	 167 	 168 	 1 
168 	 168 	 169 	 1 
169 	 169 	 170 	 1 
170 	 170 	 171 	 1 
171 	 171 	 172 	 1 
172 	 172 	 173 	 1 
173 	 173 	 174 	 1 
174 	 174 	 175 	 1 
175 	 175 	 176 	 1 
176 	 176 	 177 	 1 
177 	 177 	 178 	 1 
178 	 178 	 179 	 1 
179 	 179 	 180 	 1 
180 	 180 	 181 	 1 
181 	 181 	 182 	 1 
182 	 182 	 183 	 1 
183 	 183 	 184 	 1 
184 	 184 	 185 	 1 
185 	 185 	 186 	 1 
186 	 186 	 187 	 1 
187 	 187 	 188 	 1 
188 	 188 	 189 	 1 
189 	 189 	 190 	 1 
190 	 190 	 191 	 1 
191 	 191 	 192 	 1 
192 	 192 	 193 	 1 
193 	 193 	 194 	 1 
194 	 194 	 195 	 1 
195 	 195 	 196 	 1 
196 	 196 	 197 	 1 
197 	 197 	 198 	 1 
198 	 198 	 199 	 1 
199 	 199 	 200 	 1 
200 	 200 	 201 	 1 
201 	 201 	 202 	 1 
202 	 202 	 203 	 1 
203 	 203 	 204 	 1 
204 	 204 	 205 	 1 
205 	 205 	 206 	 1 
206 	 206 	 207 	 1 
207 	 207 	 208 	 1 
208 	 208 	 209 	 1 
209 	 209 	 210 	 1 
210 	 210 	 211 	 1 
211 	 211 	 212 	 1 
212 	 212 	 213 	 1 
213 	 213 	 214 	 1 
214 	 214 	 215 	 1 
215 	 215 	 216 	 1 
216 	 216 	 217 	 1 
217 	 217 	 218 	 1 
218 	 218 	 219 	 1 
219 	 219 	 220 	 1 
220 	 220 	 221 	 1 
221 	 221 	 222 	 1 
222 	 222 	 223 	 1 
223 	 223 	 224 	 1 
224 	 224 	 225 	 1 
225 	 225 	 226 	 1 
226 	 226 	 227 	 1 
227 	 227 	 228 	 1 
228 	 228 	 229 	 1 
229 	 229 	 230 	 1 
230 	 230 	 231 	 1 
231 	 231 	 232 	 1 
232 	 232 	 233 	 1 
233 	 233 	 234 	 1 
234 	 234 	 235 	 1 
235 	 235 	 236 	 1 
236 	 236 	 237 	 1 
237 	 237 	 238 	 1 
238 	 238 	 239 	 1 
239 	 239 	 240 	 1 
240 	 240 	 241 	 1 
241 	 241 	 242 	 1 
242 	 242 	 243 	 1 
243 	 243 	 244 	 1 
244 	 244 	 245 	 1 
245 	 245 	 246 	 1 
246 	 246 	 247 	 1 
247 	 247 	 248 	 1 
248 	 248 	 249 	 1 
249 	 249 	 250 	 1 
250 	 250 	 251 	 1 
251 	 251 	 252 	 1 
252 	 252 	 253 	 1 
253 	 253 	 254 	 1 
254 	 254 	 255 	 1 
255 	 255 	 256 	 1 
256 	 256 	 257 	 1 
257 	 257 	 258 	 1 
258 	 258 	 259 	 1 
259 	 259 	 260 	 1 
260 	 260 	 261 	 1 
261 	 261 	 262 	 1 
262 	 262 	 263 	 1 
263 	 263 	 264 	 1 
264 	 264 	 265 	 1 
265 	 265 	 266 	 1 
266 	 266 	 267 	 1 
267 	 267 	 268 	 1 
268 	 268 	 269 	 1 
269 	 269 	 270 	 1 
270 	 270 	 271 	 1 
271 	 271 	 272 	 1 
272 	 272 	 273 	 1 
273 	 273 	 274 	 1 
274 	 274 	 275 	 1 
275 	 275 	 276 	 1 
276 	 276 	 277 	 1 
277 	 277 	 278 	 1 
278 	 278 	 279 	 1 
279 	 279 	 280 	 1 
280 	 280 	 281 	 1 
281 	 281 	 282 	 1 
282 	 282 	 283 	 1 
283 	 283 	 284 	 1 
284 	 284 	 285 	 1 
285 	 285 	 286 	 1 
286 	 286 	 287 	 1 
287 	 287 	 288 	 1 
288 	 288 	 289 	 1 
289 	 289 	 290 	 1 
290 	 290 	 291 	 1 
291 	 291 	 292 	 1 
292 	 292 	 293 	 1 
293 	 293 	 294 	 1 
294 	 294 	 295 	 1 
295 	 295 	 296 	 1 
296 	 296 	 297 	 1 
297 	 297 	 298 	 1 
298 	 298 	 299 	 1 
299 	 299 	 300 	 1 
300 	 300 	 301 	 1 
301 	 301 	 302 	 1 
302 	 302 	 303 	 1 
303 	 303 	 304 	 1 
304 	 304 	 305 	 1 
305 	 305 	 306 	 1 
306 	 306 	 307 	 1 
307 	 307 	 308 	 1 
308 	 308 	 309 	 1 
309 	 309 	 310 	 1 
310 	 310 	 311 	 1 
311 	 311 	 312 	 1 
312 	 312 	 313 	 1 
313 	 313 	 314 	 1 
314 	 314 	 315 	 1 
315 	 315 	 316 	 1 
316 	 316 	 317 	 1 
317 	 317 	 318 	 1 
318 	 318 	 319 	 1 
319 	 319 	 320 	 1 
320 	 320 	 321 	 1 
321 	 321 	 322 	 1 
322 	 322 	 323 	 1 
323 	 323 	 324 	 1 
324 	 324 	 325 	 1 
325 	 325 	 326 	 1 
326 	 326 	 327 	 1 
327 	 327 	 328 	 1 
328 	 328 	 329 	 1 
329 	 329 	 330 	 1 
330 	 330 	 331 	 1 
331 	 331 	 332 	 1 
332 	 332 	 333 	 1 
333 	 333 	 334 	 1 
334 	 334 	 335 	 1 
335 	 335 	 336 	 1 
336 	 336 	 337 	 1 
337 	 337 	 338 	 1 
338 	 338 	 339 	 1 
339 	 339 	 340 	 1 
340 	 340 	 341 	 1 
341 	 341 	 342 	 1 
342 	 342 	 343 	 1 
343 	 343 	 344 	 1 
344 	 344 	 345 	 1 
345 	 345 	 346 	 1 
346 	 346 	 347 	 1 
347 	 347 	 348 	 1 
348 	 348 	 349 	 1 
349 	 349 	 350 	 1 
350 	 350 	 351 	 1 
351 	 351 	 352 	 1 
352 	 352 	 353 	 1 
353 	 353 	 354 	 1 
354 	 354 	 355 	 1 
355 	 355 	 356 	 1 
356 	 356 	 357 	 1 
357 	 357 	 358 	 1 
358 	 358 	 359 	 1 
359 	 359 	 360 	 1 
360 	 360 	 361 	 1 
361 	 361 	 362 	 1 
362 	 362 	 363 	 1 
363 	 363 	 364 	 1 
364 	 364 	 365 	 1 
365 	 365 	 366 	 1 
366 	 366 	 367 	 1 
367 	 367 	 368 	 1 
368 	 368 	 369 	 1 
369 	 369 	 370 	 1 
370 	 370 	 371 	 1 
371 	 371 	 372 	 1 
372 	 372 	 373 	 1 
373 	 373 	 374 	 1 
374 	 374 	 375 	 1 
375 	 375 	 376 	 1 
376 	 376 	 377 	 1 
377 	 377 	 378 	 1 
378 	 378 	 379 	 1 
379 	 379 	 380 	 1 
380 	 380 	 381 	 1 
381 	 381 	 382 	 1 
382 	 382 	 383 	 1 
383 	 383 	 384 	 1 
384 	 384 	 385 	 1 
385 	 385 	 386 	 1 
386 	 386 	 387 	 1 
387 	 387 	 388 	 1 
388 	 388 	 389 	 1 
389 	 389 	 390 	 1 
390 	 390 	 391 	 1 
391 	 391 	 392 	 1 
392 	 392 	 393 	 1 
393 	 393 	 394 	 1 
394 	 394 	 395 	 1 
395 	 395 	 396 	 1 
396 	 396 	 397 	 1 
397 	 397 	 398 	 1 
398 	 398 	 399 	 1 
399 	 399 	 400 	 1 
400 	 400 	 401 	 1 
401 	 401 	 402 	 1 
402 	 402 	 403 	 1 
403 	 403 	 404 	 1 
404 	 404 	 405 	 1 
405 	 405 	 406 	 1 
406 	 406 	 407 	 1 
407 	 407 	 408 	 1 
408 	 408 	 409 	 1 
409 	 409 	 410 	 1 
410 	 410 	 411 	 1 
411 	 411 	 412 	 1 
412 	 412 	 413 	 1 
413 	 413 	 414 	 1 
414 	 414 	 415 	 1 
415 	 415 	 416 	 1 
416 	 416 	 417 	 1 
417 	 417 	 418 	 1 
418 	 418 	 419 	 1 
419 	 419 	 420 	 1 
420 	 420 	 421 	 1 
421 	 421 	 422 	 1 
422 	 422 	 423 	 1 
423 	 423 	 424 	 1 
424 	 424 	 425 	 1 
425 	 425 	 426 	 1 
426 	 426 	 427 	 1 
427 	 427 	 428 	 1 
428 	 428 	 429 	 1 
429 	 429 	 430 	 1 
430 	 430 	 431 	 1 
431 	 431 	 432 	 1 
432 	 432 	 433 	 1 
433 	 433 	 434 	 1 
434 	 434 	 435 	 1 
435 	 435 	 436 	 1 
436 	 436 	 437 	 1 
437 	 437 	 438 	 1 
438 	 438 	 439 	 1 
439 	 439 	 440 	 1 
440 	 440 	 441 	 1 
441 	 441 	 442 	 1 
442 	 442 	 443 	 1 
443 	 443 	 444 	 1 
444 	 444 	 445 	 1 
445 	 445 	 446 	 1 
446 	 446 	 447 	 1 
447 	 447 	 448 	 1 
448 	 448 	 449 	 1 
449 	 449 	 450 	 1 
450 	 450 	 451 	 1 
451 	 451 	 452 	 1 
452 	 452 	 453 	 1 
453 	 453 	 454 	 1 
454 	 454 	 455 	 1 
455 	 455 	 456 	 1 
456 	 456 	 457 	 1 
457 	 457 	 458 	 1 
458 	 458 	 459 	 1 
459 	 459 	 460 	 1 
460 	 460 	 461 	 1 
461 	 461 	 462 	 1 
462 	 462 	 463 	 1 
463 	 463 	 464 	 1 
464 	 464 	 465 	 1 
465 	 465 	 466 	 1 
466 	 466 	 467 	 1 
467 	 467 	 468 	 1 
468 	 468 	 469 	 1 
469 	 469 	 470 	 1 
470 	 470 	 471 	 1 
471 	 471 	 472 	 1 
472 	 472 	 473 	 1 
473 	 473 	 474 	 1 
474 	 474 	 475 	 1 
475 	 475 	 476 	 1 
476 	 476 	 477 	 1 
477 	 477 	 478 	 1 
478 	 478 	 479 	 1 
479 	 479 	 480 	 1 
480 	 480 	 481 	 1 
481 	 481 	 482 	 1 
482 	 482 	 483 	 1 
483 	 483 	 484 	 1 
484 	 484 	 485 	 1 
485 	 485 	 486 	 1 
486 	 486 	 487 	 1 
487 	 487 	 488 	 1 
488 	 488 	 489 	 1 
489 	 489 	 490 	 1 
490 	 490 	 491 	 1 
491 	 491 	 492 	 1 
492 	 492 	 493 	 1 
493 	 493 	 494 	 1 
494 	 494 	 495 	 1 
495 	 495 	 496 	 1 
496 	 496 	 497 	 1 
497 	 497 	 498 	 1 
498 	 498 	 499 	 1 
499 	 499 	 500 	 1 
500 	 500 	 501 	 1 
501 	 501 	 502 	 1 
502 	 502 	 503 	 1 
503 	 503 	 504 	 1 
504 	 504 	 505 	 1 
505 	 505 	 506 	 1 
506 	 506 	 507 	 1 
507 	 507 	 508 	 1 
508 	 508 	 509 	 1 
509 	 509 	 510 	 1 
510 	 510 	 511 	 1 
511 	 511 	 512 	 1 
512 	 512 	 513 	 1 
513 	 513 	 514 	 1 
514 	 514 	 515 	 1 
515 	 515 	 516 	 1 
516 	 516 	 517 	 1 
517 	 517 	 518 	 1 
518 	 518 	 519 	 1 
519 	 519 	 520 	 1 
520 	 520 	 521 	 1 
521 	 521 	 522 	 1 
522 	 522 	 523 	 1 
523 	 523 	 524 	 1 
524 	 524 	 525 	 1 
525 	 525 	 526 	 1 
526 	 526 	 527 	 1 
527 	 527 	 528 	 1 
528 	 528 	 529 	 1 
529 	 529 	 530 	 1 
530 	 530 	 531 	 1 
531 	 531 	 532 	 1 
532 	 532 	 533 	 1 
533 	 533 	 534 	 1 
534 	 534 	 535 	 1 
535 	 535 	 536 	 1 
536 	 536 	 537 	 1 
537 	 537 	 538 	 1 
538 	 538 	 539 	 1 
539 	 539 	 540 	 1 
540 	 540 	 541 	 1 
541 	 541 	 542 	 1 
542 	 542 	 543 	 1 
543 	 543 	 544 	 1 
544 	 544 	 545 	 1 
545 	 545 	 546 	 1 
546 	 546 	 547 	 1 
547 	 547 	 548 	 1 
548 	 548 	 549 	 1 
549 	 549 	 550 	 1 
550 	 550 	 551 	 1 
551 	 551 	 552 	 1 
552 	 552 	 553 	 1 
553 	 553 	 554 	 1 
554 	 554 	 555 	 1 
555 	 555 	 556 	 1 
556 	 556 	 557 	 1 
557 	 557 	 558 	 1 
558 	 558 	 559 	 1 
559 	 559 	 560 	 1 
560 	 560 	 561 	 1 
561 	 561 	 562 	 1 
562 	 562 	 563 	 1 
563 	 563 	 564 	 1 
564 	 564 	 565 	 1 
565 	 565 	 566 	 1 
566 	 566 	 567 	 1 
567 	 567 	 568 	 1 
568 	 568 	 569 	 1 
569 	 569 	 570 	 1 
570 	 570 	 571 	 1 
571 	 571 	 572 	 1 
572 	 572 	 573 	 1 
573 	 573 	 574 	 1 
574 	 574 	 575 	 1 
575 	 575 	 576 	 1 
576 	 576 	 577 	 1 
577 	 577 	 578 	 1 
578 	 578 	 579 	 1 
579 	 579 	 580 	 1 
580 	 580 	 581 	 1 
581 	 581 	 582 	 1 
582 	 582 	 583 	 1 
583 	 583 	 584 	 1 
584 	 584 	 585 	 1 
585 	 585 	 586 	 1 
586 	 586 	 587 	 1 
587 	 587 	 588 	 1 
588 	 588 	 589 	 1 
589 	 589 	 590 	 1 
590 	 590 	 591 	 1 
591 	 591 	 592 	 1 
592 	 592 	 593 	 1 
593 	 593 	 594 	 1 
594 	 594 	 595 	 1 
595 	 595 	 596 	 1 
596 	 596 	 597 	 1 
597 	 597 	 598 	 1 
598 	 598 	 599 	 1 
599 	 599 	 600 	 1 
600 	 600 	 601 	 1 
601 	 601 	 602 	 1 
602 	 602 	 603 	 1 
603 	 603 	 604 	 1 
604 	 604 	 605 	 1 
605 	 605 	 606 	 1 
606 	 606 	 607 	 1 
607 	 607 	 608 	 1 
608 	 608 	 609 	 1 
609 	 609 	 610 	 1 
610 	 610 	 611 	 1 
611 	 611 	 612 	 1 
612 	 612 	 613 	 1 
613 	 613 	 614 	 1 
614 	 614 	 615 	 1 
615 	 615 	 616 	 1 
616 	 616 	 617 	 1 
617 	 617 	 618 	 1 
618 	 618 	 619 	 1 
619 	 619 	 620 	 1 
620 	 620 	 621 	 1 
621 	 621 	 622 	 1 
622 	 622 	 623 	 1 
623 	 623 	 624 	 1 
624 	 624 	 625 	 1 
625 	 625 	 626 	 1 
626 	 626 	 627 	 1 
627 	 627 	 628 	 1 
628 	 628 	 629 	 1 
629 	 629 	 630 	 1 
630 	 630 	 631 	 1 
631 	 631 	 632 	 1 
632 	 632 	 633 	 1 
633 	 633 	 634 	 1 
634 	 634 	 635 	 1 
635 	 635 	 636 	 1 
636 	 636 	 637 	 1 
637 	 637 	 638 	 1 
638 	 638 	 639 	 1 
639 	 639 	 640 	 1 
640 	 640 	 641 	 1 
641 	 641 	 642 	 1 
642 	 642 	 643 	 1 
643 	 643 	 644 	 1 
644 	 644 	 645 	 1 
645 	 645 	 646 	 1 
646 	 646 	 647 	 1 
647 	 647 	 648 	 1 
648 	 648 	 649 	 1 
649 	 649 	 650 	 1 
650 	 650 	 651 	 1 
651 	 651 	 652 	 1 
652 	 652 	 653 	 1 
653 	 653 	 654 	 1 
654 	 654 	 655 	 1 
655 	 655 	 656 	 1 
656 	 656 	 657 	 1 
657 	 657 	 658 	 1 
658 	 658 	 659 	 1 
659 	 659 	 660 	 1 
660 	 660 	 661 	 1 
661 	 661 	 662 	 1 
662 	 662 	 663 	 1 
663 	 663 	 664 	 1 
664 	 664 	 665 	 1 
665 	 665 	 666 	 1 
666 	 666 	 667 	 1 
667 	 667 	 668 	 1 
668 	 668 	 669 	 1 
669 	 669 	 670 	 1 
670 	 670 	 671 	 1 
671 	 671 	 672 	 1 
672 	 672 	 673 	 1 
673 	 673 	 674 	 1 
674 	 674 	 675 	 1 
675 	 675 	 676 	 1 
676 	 676 	 677 	 1 
677 	 677 	 678 	 1 
678 	 678 	 679 	 1 
679 	 679 	 680 	 1 
680 	 680 	 681 	 1 
681 	 681 	 682 	 1 
682 	 682 	 683 	 1 
683 	 683 	 684 	 1 
684 	 684 	 685 	 1 
685 	 685 	 686 	 1 
686 	 686 	 687 	 1 
687 	 687 	 688 	 1 
688 	 688 	 689 	 1 
689 	 689 	 690 	 1 
690 	 690 	 691 	 1 
691 	 691 	 692 	 1 
692 	 692 	 693 	 1 
693 	 693 	 694 	 1 
694 	 694 	 695 	 1 
695 	 695 	 696 	 1 
696 	 696 	 697 	 1 
697 	 697 	 698 	 1 
698 	 698 	 699 	 1 
699 	 699 	 700 	 1 
700 	 700 	 701 	 1 
701 	 701 	 702 	 1 
702 	 702 	 703 	 1 
703 	 703 	 704 	 1 
704 	 704 	 705 	 1 
705 	 705 	 706 	 1 
706 	 706 	 707 	 1 
707 	 707 	 708 	 1 
708 	 708 	 709 	 1 
709 	 709 	 710 	 1 
710 	 710 	 711 	 1 
711 	 711 	 712 	 1 
712 	 712 	 713 	 1 
713 	 713 	 714 	 1 
714 	 714 	 715 	 1 
715 	 715 	 716 	 1 
716 	 716 	 717 	 1 
717 	 717 	 718 	 1 
718 	 718 	 719 	 1 
719 	 719 	 720 	 1 
720 	 720 	 721 	 1 
721 	 721 	 722 	 1 
722 	 722 	 723 	 1 
723 	 723 	 724 	 1 
724 	 724 	 725 	 1 
725 	 725 	 726 	 1 
726 	 726 	 727 	 1 
727 	 727 	 728 	 1 
728 	 728 	 729 	 1 
729 	 729 	 730 	 1 
730 	 730 	 731 	 1 
731 	 731 	 732 	 1 
732 	 732 	 733 	 1 
733 	 733 	 734 	 1 
734 	 734 	 735 	 1 
735 	 735 	 736 	 1 
736 	 736 	 737 	 1 
737 	 737 	 738 	 1 
738 	 738 	 739 	 1 
739 	 739 	 740 	 1 
740 	 740 	 741 	 1 
741 	 741 	 742 	 1 
742 	 742 	 743 	 1 
743 	 743 	 744 	 1 
744 	 744 	 745 	 1 
745 	 745 	 746 	 1 
746 	 746 	 747 	 1 
747 	 747 	 748 	 1 
748 	 748 	 749 	 1 
749 	 749 	 750 	 1 
750 	 750 	 751 	 1 
751 	 751 	 752 	 1 
752 	 752 	 753 	 1 
753 	 753 	 754 	 1 
754 	 754 	 755 	 1 
755 	 755 	 756 	 1 
756 	 756 	 757 	 1 
757 	 757 	 758 	 1 
758 	 758 	 759 	 1 
759 	 759 	 760 	 1 
760 	 760 	 761 	 1 
761 	 761 	 762 	 1 
762 	 762 	 763 	 1 
763 	 763 	 764 	 1 
764 	 764 	 765 	 1 
765 	 765 	 766 	 1 
766 	 766 	 767 	 1 
767 	 767 	 768 	 1 
768 	 768 	 769 	 1 
769 	 769 	 770 	 1 
770 	 770 	 771 	 1 
771 	 771 	 772 	 1 
772 	 772 	 773 	 1 
773 	 773 	 774 	 1 
774 	 774 	 775 	 1 
775 	 775 	 776 	 1 
776 	 776 	 777 	 1 
777 	 777 	 778 	 1 
778 	 778 	 779 	 1 
779 	 779 	 780 	 1 
780 	 780 	 781 	 1 
781 	 781 	 782 	 1 
782 	 782 	 783 	 1 
783 	 783 	 784 	 1 
784 	 784 	 785 	 1 
785 	 785 	 786 	 1 
786 	 786 	 787 	 1 
787 	 787 	 788 	 1 
788 	 788 	 789 	 1 
789 	 789 	 790 	 1 
790 	 790 	 791 	 1 
791 	 791 	 792 	 1 
792 	 792 	 793 	 1 
793 	 793 	 794 	 1 
794 	 794 	 795 	 1 
795 	 795 	 796 	 1 
796 	 796 	 797 	 1 
797 	 797 	 798 	 1 
798 	 798 	 799 	 1 
799 	 799 	 800 	 1 
800 	 800 	 801 	 1 
801 	 801 	 802 	 1 
802 	 802 	 803 	 1 
803 	 803 	 804 	 1 
804 	 804 	 805 	 1 
805 	 805 	 806 	 1 
806 	 806 	 807 	 1 
807 	 807 	 808 	 1 
808 	 808 	 809 	 1 
809 	 809 	 810 	 1 
810 	 810 	 811 	 1 
811 	 811 	 812 	 1 
812 	 812 	 813 	 1 
813 	 813 	 814 	 1 
814 	 814 	 815 	 1 
815 	 815 	 816 	 1 
816 	 816 	 817 	 1 
817 	 817 	 818 	 1 
818 	 818 	 819 	 1 
819 	 819 	 820 	 1 
820 	 820 	 821 	 1 
821 	 821 	 822 	 1 
822 	 822 	 823 	 1 
823 	 823 	 824 	 1 
824 	 824 	 825 	 1 
825 	 825 	 826 	 1 
826 	 826 	 827 	 1 
827 	 827 	 828 	 1 
828 	 828 	 829 	 1 
829 	 829 	 830 	 1 
830 	 830 	 831 	 1 
831 	 831 	 832 	 1 
832 	 832 	 833 	 1 
833 	 833 	 834 	 1 
834 	 834 	 835 	 1 
835 	 835 	 836 	 1 
836 	 836 	 837 	 1 
837 	 837 	 838 	 1 
838 	 838 	 839 	 1 
839 	 839 	 840 	 1 
840 	 840 	 841 	 1 
841 	 841 	 842 	 1 
842 	 842 	 843 	 1 
843 	 843 	 844 	 1 
844 	 844 	 845 	 1 
845 	 845 	 846 	 1 
846 	 846 	 847 	 1 
847 	 847 	 848 	 1 
848 	 848 	 849 	 1 
849 	 849 	 850 	 1 
850 	 850 	 851 	 1 
851 	 851 	 852 	 1 
852 	 852 	 853 	 1 
853 	 853 	 854 	 1 
854 	 854 	 855 	 1 
855 	 855 	 856 	 1 
856 	 856 	 857 	 1 
857 	 857 	 858 	 1 
858 	 858 	 859 	 1 
859 	 859 	 860 	 1 
860 	 860 	 861 	 1 
861 	 861 	 862 	 1 
862 	 862 	 863 	 1 
863 	 863 	 864 	 1 
864 	 864 	 865 	 1 
865 	 865 	 866 	 1 
866 	 866 	 867 	 1 
867 	 867 	 868 	 1 
868 	 868 	 869 	 1 
869 	 869 	 870 	 1 
870 	 870 	 871 	 1 
871 	 871 	 872 	 1 
872 	 872 	 873 	 1 
873 	 873 	 874 	 1 
874 	 874 	 875 	 1 
875 	 875 	 876 	 1 
876 	 876 	 877 	 1 
877 	 877 	 878 	 1 
878 	 878 	 879 	 1 
879 	 879 	 880 	 1 
880 	 880 	 881 	 1 
881 	 881 	 882 	 1 
882 	 882 	 883 	 1 
883 	 883 	 884 	 1 
884 	 884 	 885 	 1 
885 	 885 	 886 	 1 
886 	 886 	 887 	 1 
887 	 887 	 888 	 1 
888 	 888 	 889 	 1 
889 	 889 	 890 	 1 
890 	 890 	 891 	 1 
891 	 891 	 892 	 1 
892 	 892 	 893 	 1 
893 	 893 	 894 	 1 
894 	 894 	 895 	 1 
895 	 895 	 896 	 1 
896 	 896 	 897 	 1 
897 	 897 	 898 	 1 
898 	 898 	 899 	 1 
899 	 899 	 900 	 1 
900 	 900 	 901 	 1 
901 	 901 	 902 	 1 
902 	 902 	 903 	 1 
903 	 903 	 904 	 1 
904 	 904 	 905 	 1 
905 	 905 	 906 	 1 
906 	 906 	 907 	 1 
907 	 907 	 908 	 1 
908 	 908 	 909 	 1 
909 	 909 	 910 	 1 
910 	 910 	 911 	 1 
911 	 911 	 912 	 1 
912 	 912 	 913 	 1 
913 	 913 	 914 	 1 
914 	 914 	 915 	 1 
915 	 915 	 916 	 1 
916 	 916 	 917 	 1 
917 	 917 	 918 	 1 
918 	 918 	 919 	 1 
919 	 919 	 920 	 1 
920 	 920 	 921 	 1 
921 	 921 	 922 	 1 
922 	 922 	 923 	 1 
923 	 923 	 924 	 1 
924 	 924 	 925 	 1 
925 	 925 	 926 	 1 
926 	 926 	 927 	 1 
927 	 927 	 928 	 1 
928 	 928 	 929 	 1 
929 	 929 	 930 	 1 
930 	 930 	 931 	 1 
931 	 931 	 932 	 1 
932 	 932 	 933 	 1 
933 	 933 	 934 	 1 
934 	 934 	 935 	 1 
935 	 935 	 936 	 1 
936 	 936 	 937 	 1 
937 	 937 	 938 	 1 
938 	 938 	 939 	 1 
939 	 939 	 940 	 1 
940 	 940 	 941 	 1 
941 	 941 	 942 	 1 
942 	 942 	 943 	 1 
943 	 943 	 944 	 1 
944 	 944 	 945 	 1 
945 	 945 	 946 	 1 
946 	 946 	 947 	 1 
947 	 947 	 948 	 1 
948 	 948 	 949 	 1 
949 	 949 	 950 	 1 
950 	 950 	 951 	 1 
951 	 951 	 952 	 1 
952 	 952 	 953 	 1 
953 	 953 	 954 	 1 
954 	 954 	 955 	 1 
955 	 955 	 956 	 1 
956 	 956 	 957 	 1 
957 	 957 	 958 	 1 
958 	 958 	 959 	 1 
959 	 959 	 960 	 1 
960 	 960 	 961 	 1 
961 	 961 	 962 	 1 
962 	 962 	 963 	 1 
963 	 963 	 964 	 1 
964 	 964 	 965 	 1 
965 	 965 	 966 	 1 
966 	 966 	 967 	 1 
967 	 967 	 968 	 1 
968 	 968 	 969 	 1 
969 	 969 	 970 	 1 
970 	 970 	 971 	 1 
971 	 971 	 972 	 1 
972 	 972 	 973 	 1 
973 	 973 	 974 	 1 
974 	 974 	 975 	 1 
975 	 975 	 976 	 1 
976 	 976 	 977 	 1 
977 	 977 	 978 	 1 
978 	 978 	 979 	 1 
979 	 979 	 980 	 1 
980 	 980 	 981 	 1 
981 	 981 	 982 	 1 
982 	 982 	 983 	 1 
983 	 983 	 984 	 1 
984 	 984 	 985 	 1 
985 	 985 	 986 	 1 
986 	 986 	 987 	 1 
987 	 987 	 988 	 1 
988 	 988 	 989 	 1 
989 	 989 	 990 	 1 
990 	 990 	 991 	 1 
991 	 991 	 992 	 1 
992 	 992 	 993 	 1 
993 	 993 	 994 	 1 
994 	 994 	 995 	 1 
995 	 995 	 996 	 1 
996 	 996 	 997 	 1 
997 	 997 	 998 	 1 
998 	 998 	 999 	 1 
999 	 999 	 1000 	 1 
1000 	 1000 	 1001 	 1 
1001 	 1001 	 1002 	 1 
1002 	 1002 	 1003 	 1 
1003 	 1003 	 1004 	 1 
1004 	 1004 	 1005 	 1 
1005 	 1005 	 1006 	 1 
1006 	 1006 	 1007 	 1 
1007 	 1007 	 1008 	 1 
1008 	 1008 	 1009 	 1 
1009 	 1009 	 1010 	 1 
1010 	 1010 	 1011 	 1 
1011 	 1011 	 1012 	 1 
1012 	 1012 	 1013 	 1 
1013 	 1013 	 1014 	 1 
1014 	 1014 	 1015 	 1 
1015 	 1015 	 1016 	 1 
1016 	 1016 	 1017 	 1 
1017 	 1017 	 1018 	 1 
1018 	 1018 	 1019 	 1 
1019 	 1019 	 1020 	 1 
1020 	 1020 	 1021 	 1 
1021 	 1021 	 1022 	 1 
1022 	 1022 	 1023 	 1 
1023 	 1023 	 1024 	 1 
1024 	 1024 	 1025 	 1 
1025 	 1025 	 1026 	 1 
1026 	 1026 	 1027 	 1 
1027 	 1027 	 1028 	 1 
1028 	 1028 	 1029 	 1 
1029 	 1029 	 1030 	 1 
1030 	 1030 	 1031 	 1 
1031 	 1031 	 1032 	 1 
1032 	 1032 	 1033 	 1 
1033 	 1033 	 1034 	 1 
1034 	 1034 	 1035 	 1 
1035 	 1035 	 1036 	 1 
1036 	 1036 	 1037 	 1 
1037 	 1037 	 1038 	 1 
1038 	 1038 	 1039 	 1 
1039 	 1039 	 1040 	 1 
1040 	 1040 	 1041 	 1 
1041 	 1041 	 1042 	 1 
1042 	 1042 	 1043 	 1 
1043 	 1043 	 1044 	 1 
1044 	 1044 	 1045 	 1 
1045 	 1045 	 1046 	 1 
1046 	 1046 	 1047 	 1 
1047 	 1047 	 1048 	 1 
1048 	 1048 	 1049 	 1 
1049 	 1049 	 1050 	 1 
1050 	 1050 	 1051 	 1 
1051 	 1051 	 1052 	 1 
1052 	 1052 	 1053 	 1 
1053 	 1053 	 1054 	 1 
1054 	 1054 	 1055 	 1 
1055 	 1055 	 1056 	 1 
1056 	 1056 	 1057 	 1 
1057 	 1057 	 1058 	 1 
1058 	 1058 	 1059 	 1 
1059 	 1059 	 1060 	 1 
1060 	 1060 	 1061 	 1 
1061 	 1061 	 1062 	 1 
1062 	 1062 	 1063 	 1 
1063 	 1063 	 1064 	 1 
1064 	 1064 	 1065 	 1 
1065 	 1065 	 1066 	 1 
1066 	 1066 	 1067 	 1 
1067 	 1067 	 1068 	 1 
1068 	 1068 	 1069 	 1 
1069 	 1069 	 1070 	 1 
1070 	 1070 	 1071 	 1 
1071 	 1071 	 1072 	 1 
1072 	 1072 	 1073 	 1 
1073 	 1073 	 1074 	 1 
1074 	 1074 	 1075 	 1 
1075 	 1075 	 1076 	 1 
1076 	 1076 	 1077 	 1 
1077 	 1077 	 1078 	 1 
1078 	 1078 	 1079 	 1 
1079 	 1079 	 1080 	 1 
1080 	 1080 	 1081 	 1 
1081 	 1081 	 1082 	 1 
1082 	 1082 	 1083 	 1 
1083 	 1083 	 1084 	 1 
1084 	 1084 	 1085 	 1 
1085 	 1085 	 1086 	 1 
1086 	 1086 	 1087 	 1 
1087 	 1087 	 1088 	 1 
1088 	 1088 	 1089 	 1 
1089 	 1089 	 1090 	 1 
1090 	 1090 	 1091 	 1 
1091 	 1091 	 1092 	 1 
1092 	 1092 	 1093 	 1 
1093 	 1093 	 1094 	 1 
1094 	 1094 	 1095 	 1 
1095 	 1095 	 1096 	 1 
1096 	 1096 	 1097 	 1 
1097 	 1097 	 1098 	 1 
1098 	 1098 	 1099 	 1 
1099 	 1099 	 1100 	 1 
1100 	 1100 	 1101 	 1 
1101 	 1101 	 1102 	 1 
1102 	 1102 	 1103 	 1 
1103 	 1103 	 1104 	 1 
1104 	 1104 	 1105 	 1 
1105 	 1105 	 1106 	 1 
1106 	 1106 	 1107 	 1 
1107 	 1107 	 1108 	 1 
1108 	 1108 	 1109 	 1 
1109 	 1109 	 1110 	 1 
1110 	 1110 	 1111 	 1 
1111 	 1111 	 1112 	 1 
1112 	 1112 	 1113 	 1 
1113 	 1113 	 1114 	 1 
1114 	 1114 	 1115 	 1 
1115 	 1115 	 1116 	 1 
1116 	 1116 	 1117 	 1 
1117 	 1117 	 1118 	 1 
1118 	 1118 	 1119 	 1 
1119 	 1119 	 1120 	 1 
1120 	 1120 	 1121 	 1 
1121 	 1121 	 1122 	 1 
1122 	 1122 	 1123 	 1 
1123 	 1123 	 1124 	 1 
1124 	 1124 	 1125 	 1 
1125 	 1125 	 1126 	 1 
1126 	 1126 	 1127 	 1 
1127 	 1127 	 1128 	 1 
1128 	 1128 	 1129 	 1 
1129 	 1129 	 1130 	 1 
1130 	 1130 	 1131 	 1 
1131 	 1131 	 1132 	 1 
1132 	 1132 	 1133 	 1 
1133 	 1133 	 1134 	 1 
1134 	 1134 	 1135 	 1 
1135 	 1135 	 1136 	 1 
1136 	 1136 	 1137 	 1 
1137 	 1137 	 1138 	 1 
1138 	 1138 	 1139 	 1 
1139 	 1139 	 1140 	 1 
1140 	 1140 	 1141 	 1 
1141 	 1141 	 1142 	 1 
1142 	 1142 	 1143 	 1 
1143 	 1143 	 1144 	 1 
1144 	 1144 	 1145 	 1 
1145 	 1145 	 1146 	 1 
1146 	 1146 	 1147 	 1 
1147 	 1147 	 1148 	 1 
1148 	 1148 	 1149 	 1 
1149 	 1149 	 1150 	 1 
1150 	 1150 	 1151 	 1 
1151 	 1151 	 1152 	 1 
1152 	 1152 	 1153 	 1 
1153 	 1153 	 1154 	 1 
1154 	 1154 	 1155 	 1 
1155 	 1155 	 1156 	 1 
1156 	 1156 	 1157 	 1 
1157 	 1157 	 1158 	 1 
1158 	 1158 	 1159 	 1 
1159 	 1159 	 1160 	 1 
1160 	 1160 	 1161 	 1 
1161 	 1161 	 1162 	 1 
1162 	 1162 	 1163 	 1 
1163 	 1163 	 1164 	 1 
1164 	 1164 	 1165 	 1 
1165 	 1165 	 1166 	 1 
1166 	 1166 	 1167 	 1 
1167 	 1167 	 1168 	 1 
1168 	 1168 	 1169 	 1 
1169 	 1169 	 1170 	 1 
1170 	 1170 	 1171 	 1 
1171 	 1171 	 1172 	 1 
1172 	 1172 	 1173 	 1 
1173 	 1173 	 1174 	 1 
1174 	 1174 	 1175 	 1 
1175 	 1175 	 1176 	 1 
1176 	 1176 	 1177 	 1 
1177 	 1177 	 1178 	 1 
1178 	 1178 	 1179 	 1 
1179 	 1179 	 1180 	 1 
1180 	 1180 	 1181 	 1 
1181 	 1181 	 1182 	 1 
1182 	 1182 	 1183 	 1 
1183 	 1183 	 1184 	 1 
1184 	 1184 	 1185 	 1 
1185 	 1185 	 1186 	 1 
1186 	 1186 	 1187 	 1 
1187 	 1187 	 1188 	 1 
1188 	 1188 	 1189 	 1 
1189 	 1189 	 1190 	 1 
1190 	 1190 	 1191 	 1 
1191 	 1191 	 1192 	 1 
1192 	 1192 	 1193 	 1 
1193 	 1193 	 1194 	 1 
1194 	 1194 	 1195 	 1 
1195 	 1195 	 1196 	 1 
1196 	 1196 	 1197 	 1 
1197 	 1197 	 1198 	 1 
1198 	 1198 	 1199 	 1 
1199 	 1199 	 1200 	 1 
1200 	 1200 	 1201 	 1 
1201 	 1201 	 1202 	 1 
1202 	 1202 	 1203 	 1 
1203 	 1203 	 1204 	 1 
1204 	 1204 	 1205 	 1 
1205 	 1205 	 1206 	 1 
1206 	 1206 	 1207 	 1 
1207 	 1207 	 1208 	 1 
1208 	 1208 	 1209 	 1 
1209 	 1209 	 1210 	 1 
1210 	 1210 	 1211 	 1 
1211 	 1211 	 1212 	 1 
1212 	 1212 	 1213 	 1 
1213 	 1213 	 1214 	 1 
1214 	 1214 	 1215 	 1 
1215 	 1215 	 1216 	 1 
1216 	 1216 	 1217 	 1 
1217 	 1217 	 1218 	 1 
1218 	 1218 	 1219 	 1 
1219 	 1219 	 1220 	 1 
1220 	 1220 	 1221 	 1 
1221 	 1221 	 1222 	 1 
1222 	 1222 	 1223 	 1 
1223 	 1223 	 1224 	 1 
1224 	 1224 	 1225 	 1 
1225 	 1225 	 1226 	 1 
1226 	 1226 	 1227 	 1 
1227 	 1227 	 1228 	 1 
1228 	 1228 	 1229 	 1 
1229 	 1229 	 1230 	 1 
1230 	 1230 	 1231 	 1 
1231 	 1231 	 1232 	 1 
1232 	 1232 	 1233 	 1 
1233 	 1233 	 1234 	 1 
1234 	 1234 	 1235 	 1 
1235 	 1235 	 1236 	 1 
1236 	 1236 	 1237 	 1 
1237 	 1237 	 1238 	 1 
1238 	 1238 	 1239 	 1 
1239 	 1239 	 1240 	 1 
1240 	 1240 	 1241 	 1 
1241 	 1241 	 1242 	 1 
1242 	 1242 	 1243 	 1 
1243 	 1243 	 1244 	 1 
1244 	 1244 	 1245 	 1 
1245 	 1245 	 1246 	 1 
1246 	 1246 	 1247 	 1 
1247 	 1247 	 1248 	 1 
1248 	 1248 	 1249 	 1 
1249 	 1249 	 1250 	 1 
1250 	 1250 	 1251 	 1 
1251 	 1251 	 1252 	 1 
1252 	 1252 	 1253 	 1 
1253 	 1253 	 1254 	 1 
1254 	 1254 	 1255 	 1 
1255 	 1255 	 1256 	 1 
1256 	 1256 	 1257 	 1 
1257 	 1257 	 1258 	 1 
1258 	 1258 	 1259 	 1 
1259 	 1259 	 1260 	 1 
1260 	 1260 	 1261 	 1 
1261 	 1261 	 1262 	 1 
1262 	 1262 	 1263 	 1 
1263 	 1263 	 1264 	 1 
1264 	 1264 	 1265 	 1 
1265 	 1265 	 1266 	 1 
1266 	 1266 	 1267 	 1 
1267 	 1267 	 1268 	 1 
1268 	 1268 	 1269 	 1 
1269 	 1269 	 1270 	 1 
1270 	 1270 	 1271 	 1 
1271 	 1271 	 1272 	 1 
1272 	 1272 	 1273 	 1 
1273 	 1273 	 1274 	 1 
1274 	 1274 	 1275 	 1 
1275 	 1275 	 1276 	 1 
1276 	 1276 	 1277 	 1 
1277 	 1277 	 1278 	 1 
1278 	 1278 	 1279 	 1 
1279 	 1279 	 1280 	 1 
1280 	 1280 	 1281 	 1 
1281 	 1281 	 1282 	 1 
1282 	 1282 	 1283 	 1 
1283 	 1283 	 1284 	 1 
1284 	 1284 	 1285 	 1 
1285 	 1285 	 1286 	 1 
1286 	 1286 	 1287 	 1 
1287 	 1287 	 1288 	 1 
1288 	 1288 	 1289 	 1 
1289 	 1289 	 1290 	 1 
1290 	 1290 	 1291 	 1 
1291 	 1291 	 1292 	 1 
1292 	 1292 	 1293 	 1 
1293 	 1293 	 1294 	 1 
1294 	 1294 	 1295 	 1 
1295 	 1295 	 1296 	 1 
1296 	 1296 	 1297 	 1 
1297 	 1297 	 1298 	 1 
1298 	 1298 	 1299 	 1 
1299 	 1299 	 1300 	 1 
1300 	 1300 	 1301 	 1 
1301 	 1301 	 1302 	 1 
1302 	 1302 	 1303 	 1 
1303 	 1303 	 1304 	 1 
1304 	 1304 	 1305 	 1 
1305 	 1305 	 1306 	 1 
1306 	 1306 	 1307 	 1 
1307 	 1307 	 1308 	 1 
1308 	 1308 	 1309 	 1 
1309 	 1309 	 1310 	 1 
1310 	 1310 	 1311 	 1 
1311 	 1311 	 1312 	 1 
1312 	 1312 	 1313 	 1 
1313 	 1313 	 1314 	 1 
1314 	 1314 	 1315 	 1 
1315 	 1315 	 1316 	 1 
1316 	 1316 	 1317 	 1 
1317 	 1317 	 1318 	 1 
1318 	 1318 	 1319 	 1 
1319 	 1319 	 1320 	 1 
1320 	 1320 	 1321 	 1 
1321 	 1321 	 1322 	 1 
1322 	 1322 	 1323 	 1 
1323 	 1323 	 1324 	 1 
1324 	 1324 	 1325 	 1 
1325 	 1325 	 1326 	 1 
1326 	 1326 	 1327 	 1 
1327 	 1327 	 1328 	 1 
1328 	 1328 	 1329 	 1 
1329 	 1329 	 1330 	 1 
1330 	 1330 	 1331 	 1 
1331 	 1331 	 1332 	 1 
1332 	 1332 	 1333 	 1 
1333 	 1333 	 1334 	 1 
1334 	 1334 	 1335 	 1 
1335 	 1335 	 1336 	 1 
1336 	 1336 	 1337 	 1 
1337 	 1337 	 1338 	 1 
1338 	 1338 	 1339 	 1 
1339 	 1339 	 1340 	 1 
1340 	 1340 	 1341 	 1 
1341 	 1341 	 1342 	 1 
1342 	 1342 	 1343 	 1 
1343 	 1343 	 1344 	 1 
1344 	 1344 	 1345 	 1 
1345 	 1345 	 1346 	 1 
1346 	 1346 	 1347 	 1 
1347 	 1347 	 1348 	 1 
1348 	 1348 	 1349 	 1 
1349 	 1349 	 1350 	 1 
1350 	 1350 	 1351 	 1 
1351 	 1351 	 1352 	 1 
1352 	 1352 	 1353 	 1 
1353 	 1353 	 1354 	 1 
1354 	 1354 	 1355 	 1 
1355 	 1355 	 1356 	 1 
1356 	 1356 	 1357 	 1 
1357 	 1357 	 1358 	 1 
1358 	 1358 	 1359 	 1 
1359 	 1359 	 1360 	 1 
1360 	 1360 	 1361 	 1 
1361 	 1361 	 1362 	 1 
1362 	 1362 	 1363 	 1 
1363 	 1363 	 1364 	 1 
1364 	 1364 	 1365 	 1 
1365 	 1365 	 1366 	 1 
1366 	 1366 	 1367 	 1 
1367 	 1367 	 1368 	 1 
1368 	 1368 	 1369 	 1 
1369 	 1369 	 1370 	 1 
1370 	 1370 	 1371 	 1 
1371 	 1371 	 1372 	 1 
1372 	 1372 	 1373 	 1 
1373 	 1373 	 1374 	 1 
1374 	 1374 	 1375 	 1 
1375 	 1375 	 1376 	 1 
1376 	 1376 	 1377 	 1 
1377 	 1377 	 1378 	 1 
1378 	 1378 	 1379 	 1 
1379 	 1379 	 1380 	 1 
1380 	 1380 	 1381 	 1 
1381 	 1381 	 1382 	 1 
1382 	 1382 	 1383 	 1 
1383 	 1383 	 1384 	 1 
1384 	 1384 	 1385 	 1 
1385 	 1385 	 1386 	 1 
1386 	 1386 	 1387 	 1 
1387 	 1387 	 1388 	 1 
1388 	 1388 	 1389 	 1 
1389 	 1389 	 1390 	 1 
1390 	 1390 	 1391 	 1 
1391 	 1391 	 1392 	 1 
1392 	 1392 	 1393 	 1 
1393 	 1393 	 1394 	 1 
1394 	 1394 	 1395 	 1 
1395 	 1395 	 1396 	 1 
1396 	 1396 	 1397 	 1 
1397 	 1397 	 1398 	 1 
1398 	 1398 	 1399 	 1 
1399 	 1399 	 1400 	 1 
1400 	 1400 	 1401 	 1 
1401 	 1401 	 1402 	 1 
1402 	 1402 	 1403 	 1 
1403 	 1403 	 1404 	 1 
1404 	 1404 	 1405 	 1 
1405 	 1405 	 1406 	 1 
1406 	 1406 	 1407 	 1 
1407 	 1407 	 1408 	 1 
1408 	 1408 	 1409 	 1 
1409 	 1409 	 1410 	 1 
1410 	 1410 	 1411 	 1 
1411 	 1411 	 1412 	 1 
1412 	 1412 	 1413 	 1 
1413 	 1413 	 1414 	 1 
1414 	 1414 	 1415 	 1 
1415 	 1415 	 1416 	 1 
1416 	 1416 	 1417 	 1 
1417 	 1417 	 1418 	 1 
1418 	 1418 	 1419 	 1 
1419 	 1419 	 1420 	 1 
1420 	 1420 	 1421 	 1 
1421 	 1421 	 1422 	 1 
1422 	 1422 	 1423 	 1 
1423 	 1423 	 1424 	 1 
1424 	 1424 	 1425 	 1 
1425 	 1425 	 1426 	 1 
1426 	 1426 	 1427 	 1 
1427 	 1427 	 1428 	 1 
1428 	 1428 	 1429 	 1 
1429 	 1429 	 1430 	 1 
1430 	 1430 	 1431 	 1 
1431 	 1431 	 1432 	 1 
1432 	 1432 	 1433 	 1 
1433 	 1433 	 1434 	 1 
1434 	 1434 	 1435 	 1 
1435 	 1435 	 1436 	 1 
1436 	 1436 	 1437 	 1 
1437 	 1437 	 1438 	 1 
1438 	 1438 	 1439 	 1 
1439 	 1439 	 1440 	 1 
1440 	 1440 	 1441 	 1 
1441 	 1441 	 1442 	 1 
1442 	 1442 	 1443 	 1 
1443 	 1443 	 1444 	 1 
1444 	 1444 	 1445 	 1 
1445 	 1445 	 1446 	 1 
1446 	 1446 	 1447 	 1 
1447 	 1447 	 1448 	 1 
1448 	 1448 	 1449 	 1 
1449 	 1449 	 1450 	 1 
1450 	 1450 	 1451 	 1 
1451 	 1451 	 1452 	 1 
1452 	 1452 	 1453 	 1 
1453 	 1453 	 1454 	 1 
1454 	 1454 	 1455 	 1 
1455 	 1455 	 1456 	 1 
1456 	 1456 	 1457 	 1 
1457 	 1457 	 1458 	 1 
1458 	 1458 	 1459 	 1 
1459 	 1459 	 1460 	 1 
1460 	 1460 	 1461 	 1 
1461 	 1461 	 1462 	 1 
1462 	 1462 	 1463 	 1 
1463 	 1463 	 1464 	 1 
1464 	 1464 	 1465 	 1 
1465 	 1465 	 1466 	 1 
1466 	 1466 	 1467 	 1 
1467 	 1467 	 1468 	 1 
1468 	 1468 	 1469 	 1 
1469 	 1469 	 1470 	 1 
1470 	 1470 	 1471 	 1 
1471 	 1471 	 1472 	 1 
1472 	 1472 	 1473 	 1 
1473 	 1473 	 1474 	 1 
1474 	 1474 	 1475 	 1 
1475 	 1475 	 1476 	 1 
1476 	 1476 	 1477 	 1 
1477 	 1477 	 1478 	 1 
1478 	 1478 	 1479 	 1 
1479 	 1479 	 1480 	 1 
1480 	 1480 	 1481 	 1 
1481 	 1481 	 1482 	 1 
1482 	 1482 	 1483 	 1 
1483 	 1483 	 1484 	 1 
1484 	 1484 	 1485 	 1 
1485 	 1485 	 1486 	 1 
1486 	 1486 	 1487 	 1 
1487 	 1487 	 1488 	 1 
1488 	 1488 	 1489 	 1 
1489 	 1489 	 1490 	 1 
1490 	 1490 	 1491 	 1 
1491 	 1491 	 1492 	 1 
1492 	 1492 	 1493 	 1 
1493 	 1493 	 1494 	 1 
1494 	 1494 	 1495 	 1 
1495 	 1495 	 1496 	 1 
1496 	 1496 	 1497 	 1 
1497 	 1497 	 1498 	 1 
1498 	 1498 	 1499 	 1 
1499 	 1499 	 1500 	 1 
1500 	 1500 	 1501 	 1 
1501 	 1501 	 1502 	 1 
1502 	 1502 	 1503 	 1 
1503 	 1503 	 1504 	 1 
1504 	 1504 	 1505 	 1 
1505 	 1505 	 1506 	 1 
1506 	 1506 	 1507 	 1 
1507 	 1507 	 1508 	 1 
1508 	 1508 	 1509 	 1 
1509 	 1509 	 1510 	 1 
1510 	 1510 	 1511 	 1 
1511 	 1511 	 1512 	 1 
1512 	 1512 	 1513 	 1 
1513 	 1513 	 1514 	 1 
1514 	 1514 	 1515 	 1 
1515 	 1515 	 1516 	 1 
1516 	 1516 	 1517 	 1 
1517 	 1517 	 1518 	 1 
1518 	 1518 	 1519 	 1 
1519 	 1519 	 1520 	 1 
1520 	 1520 	 1521 	 1 
1521 	 1521 	 1522 	 1 
1522 	 1522 	 1523 	 1 
1523 	 1523 	 1524 	 1 
1524 	 1524 	 1525 	 1 
1525 	 1525 	 1526 	 1 
1526 	 1526 	 1527 	 1 
1527 	 1527 	 1528 	 1 
1528 	 1528 	 1529 	 1 
1529 	 1529 	 1530 	 1 
1530 	 1530 	 1531 	 1 
1531 	 1531 	 1532 	 1 
1532 	 1532 	 1533 	 1 
1533 	 1533 	 1534 	 1 
1534 	 1534 	 1535 	 1 
1535 	 1535 	 1536 	 1 
1536 	 1536 	 1537 	 1 
1537 	 1537 	 1538 	 1 
1538 	 1538 	 1539 	 1 
1539 	 1539 	 1540 	 1 
1540 	 1540 	 1541 	 1 
1541 	 1541 	 1542 	 1 
1542 	 1542 	 1543 	 1 
1543 	 1543 	 1544 	 1 
1544 	 1544 	 1545 	 1 
1545 	 1545 	 1546 	 1 
1546 	 1546 	 1547 	 1 
1547 	 1547 	 1548 	 1 
1548 	 1548 	 1549 	 1 
1549 	 1549 	 1550 	 1 
1550 	 1550 	 1551 	 1 
1551 	 1551 	 1552 	 1 
1552 	 1552 	 1553 	 1 
1553 	 1553 	 1554 	 1 
1554 	 1554 	 1555 	 1 
1555 	 1555 	 1556 	 1 
1556 	 1556 	 1557 	 1 
1557 	 1557 	 1558 	 1 
1558 	 1558 	 1559 	 1 
1559 	 1559 	 1560 	 1 
1560 	 1560 	 1561 	 1 
1561 	 1561 	 1562 	 1 
1562 	 1562 	 1563 	 1 
1563 	 1563 	 1564 	 1 
1564 	 1564 	 1565 	 1 
1565 	 1565 	 1566 	 1 
1566 	 1566 	 1567 	 1 
1567 	 1567 	 1568 	 1 
1568 	 1568 	 1569 	 1 
1569 	 1569 	 1570 	 1 
1570 	 1570 	 1571 	 1 
1571 	 1571 	 1572 	 1 
1572 	 1572 	 1573 	 1 
1573 	 1573 	 1574 	 1 
1574 	 1574 	 1575 	 1 
1575 	 1575 	 1576 	 1 
1576 	 1576 	 1577 	 1 
1577 	 1577 	 1578 	 1 
1578 	 1578 	 1579 	 1 
1579 	 1579 	 1580 	 1 
1580 	 1580 	 1581 	 1 
1581 	 1581 	 1582 	 1 
1582 	 1582 	 1583 	 1 
1583 	 1583 	 1584 	 1 
1584 	 1584 	 1585 	 1 
1585 	 1585 	 1586 	 1 
1586 	 1586 	 1587 	 1 
1587 	 1587 	 1588 	 1 
1588 	 1588 	 1589 	 1 
1589 	 1589 	 1590 	 1 
1590 	 1590 	 1591 	 1 
1591 	 1591 	 1592 	 1 
1592 	 1592 	 1593 	 1 
1593 	 1593 	 1594 	 1 
1594 	 1594 	 1595 	 1 
1595 	 1595 	 1596 	 1 
1596 	 1596 	 1597 	 1 
1597 	 1597 	 1598 	 1 
1598 	 1598 	 1599 	 1 
1599 	 1599 	 1600 	 1 
1600 	 1600 	 1601 	 1 
1601 	 1601 	 1602 	 1 
1602 	 1602 	 1603 	 1 
1603 	 1603 	 1604 	 1 
1604 	 1604 	 1605 	 1 
1605 	 1605 	 1606 	 1 
1606 	 1606 	 1607 	 1 
1607 	 1607 	 1608 	 1 
1608 	 1608 	 1609 	 1 
1609 	 1609 	 1610 	 1 
1610 	 1610 	 1611 	 1 
1611 	 1611 	 1612 	 1 
1612 	 1612 	 1613 	 1 
1613 	 1613 	 1614 	 1 
1614 	 1614 	 1615 	 1 
1615 	 1615 	 1616 	 1 
1616 	 1616 	 1617 	 1 
1617 	 1617 	 1618 	 1 
1618 	 1618 	 1619 	 1 
1619 	 1619 	 1620 	 1 
1620 	 1620 	 1621 	 1 
1621 	 1621 	 1622 	 1 
1622 	 1622 	 1623 	 1 
1623 	 1623 	 1624 	 1 
1624 	 1624 	 1625 	 1 
1625 	 1625 	 1626 	 1 
1626 	 1626 	 1627 	 1 
1627 	 1627 	 1628 	 1 
1628 	 1628 	 1629 	 1 
1629 	 1629 	 1630 	 1 
1630 	 1630 	 1631 	 1 
1631 	 1631 	 1632 	 1 
1632 	 1632 	 1633 	 1 
1633 	 1633 	 1634 	 1 
1634 	 1634 	 1635 	 1 
1635 	 1635 	 1636 	 1 
1636 	 1636 	 1637 	 1 
1637 	 1637 	 1638 	 1 
1638 	 1638 	 1639 	 1 
1639 	 1639 	 1640 	 1 
1640 	 1640 	 1641 	 1 
1641 	 1641 	 1642 	 1 
1642 	 1642 	 1643 	 1 
1643 	 1643 	 1644 	 1 
1644 	 1644 	 1645 	 1 
1645 	 1645 	 1646 	 1 
1646 	 1646 	 1647 	 1 
1647 	 1647 	 1648 	 1 
1648 	 1648 	 1649 	 1 
1649 	 1649 	 1650 	 1 
1650 	 1650 	 1651 	 1 
1651 	 1651 	 1652 	 1 
1652 	 1652 	 1653 	 1 
1653 	 1653 	 1654 	 1 
1654 	 1654 	 1655 	 1 
1655 	 1655 	 1656 	 1 
1656 	 1656 	 1657 	 1 
1657 	 1657 	 1658 	 1 
1658 	 1658 	 1659 	 1 
1659 	 1659 	 1660 	 1 
1660 	 1660 	 1661 	 1 
1661 	 1661 	 1662 	 1 
1662 	 1662 	 1663 	 1 
1663 	 1663 	 1664 	 1 
1664 	 1664 	 1665 	 1 
1665 	 1665 	 1666 	 1 
1666 	 1666 	 1667 	 1 
1667 	 1667 	 1668 	 1 
1668 	 1668 	 1669 	 1 
1669 	 1669 	 1670 	 1 
1670 	 1670 	 1671 	 1 
1671 	 1671 	 1672 	 1 
1672 	 1672 	 1673 	 1 
1673 	 1673 	 1674 	 1 
1674 	 1674 	 1675 	 1 
1675 	 1675 	 1676 	 1 
1676 	 1676 	 1677 	 1 
1677 	 1677 	 1678 	 1 
1678 	 1678 	 1679 	 1 
1679 	 1679 	 1680 	 1 
1680 	 1680 	 1681 	 1 
1681 	 1681 	 1682 	 1 
1682 	 1682 	 1683 	 1 
1683 	 1683 	 1684 	 1 
1684 	 1684 	 1685 	 1 
1685 	 1685 	 1686 	 1 
1686 	 1686 	 1687 	 1 
1687 	 1687 	 1688 	 1 
1688 	 1688 	 1689 	 1 
1689 	 1689 	 1690 	 1 
1690 	 1690 	 1691 	 1 
1691 	 1691 	 1692 	 1 
1692 	 1692 	 1693 	 1 
1693 	 1693 	 1694 	 1 
1694 	 1694 	 1695 	 1 
1695 	 1695 	 1696 	 1 
1696 	 1696 	 1697 	 1 
1697 	 1697 	 1698 	 1 
1698 	 1698 	 1699 	 1 
1699 	 1699 	 1700 	 1 
1700 	 1700 	 1701 	 1 
1701 	 1701 	 1702 	 1 
1702 	 1702 	 1703 	 1 
1703 	 1703 	 1704 	 1 
1704 	 1704 	 1705 	 1 
1705 	 1705 	 1706 	 1 
1706 	 1706 	 1707 	 1 
1707 	 1707 	 1708 	 1 
1708 	 1708 	 1709 	 1 
1709 	 1709 	 1710 	 1 
1710 	 1710 	 1711 	 1 
1711 	 1711 	 1712 	 1 
1712 	 1712 	 1713 	 1 
1713 	 1713 	 1714 	 1 
1714 	 1714 	 1715 	 1 
1715 	 1715 	 1716 	 1 
1716 	 1716 	 1717 	 1 
1717 	 1717 	 1718 	 1 
1718 	 1718 	 1719 	 1 
1719 	 1719 	 1720 	 1 
1720 	 1720 	 1721 	 1 
1721 	 1721 	 1722 	 1 
1722 	 1722 	 1723 	 1 
1723 	 1723 	 1724 	 1 
1724 	 1724 	 1725 	 1 
1725 	 1725 	 1726 	 1 
1726 	 1726 	 1727 	 1 
1727 	 1727 	 1728 	 1 
1728 	 1728 	 1729 	 1 
1729 	 1729 	 1730 	 1 
1730 	 1730 	 1731 	 1 
1731 	 1731 	 1732 	 1 
1732 	 1732 	 1733 	 1 
1733 	 1733 	 1734 	 1 
1734 	 1734 	 1735 	 1 
1735 	 1735 	 1736 	 1 
1736 	 1736 	 1737 	 1 
1737 	 1737 	 1738 	 1 
1738 	 1738 	 1739 	 1 
1739 	 1739 	 1740 	 1 
1740 	 1740 	 1741 	 1 
1741 	 1741 	 1742 	 1 
1742 	 1742 	 1743 	 1 
1743 	 1743 	 1744 	 1 
1744 	 1744 	 1745 	 1 
1745 	 1745 	 1746 	 1 
1746 	 1746 	 1747 	 1 
1747 	 1747 	 1748 	 1 
1748 	 1748 	 1749 	 1 
1749 	 1749 	 1750 	 1 
1750 	 1750 	 1751 	 1 
1751 	 1751 	 1752 	 1 
1752 	 1752 	 1753 	 1 
1753 	 1753 	 1754 	 1 
1754 	 1754 	 1755 	 1 
1755 	 1755 	 1756 	 1 
1756 	 1756 	 1757 	 1 
1757 	 1757 	 1758 	 1 
1758 	 1758 	 1759 	 1 
1759 	 1759 	 1760 	 1 
1760 	 1760 	 1761 	 1 
1761 	 1761 	 1762 	 1 
1762 	 1762 	 1763 	 1 
1763 	 1763 	 1764 	 1 
1764 	 1764 	 1765 	 1 
1765 	 1765 	 1766 	 1 
1766 	 1766 	 1767 	 1 
1767 	 1767 	 1768 	 1 
1768 	 1768 	 1769 	 1 
1769 	 1769 	 1770 	 1 
1770 	 1770 	 1771 	 1 
1771 	 1771 	 1772 	 1 
1772 	 1772 	 1773 	 1 
1773 	 1773 	 1774 	 1 
1774 	 1774 	 1775 	 1 
1775 	 1775 	 1776 	 1 
1776 	 1776 	 1777 	 1 
1777 	 1777 	 1778 	 1 
1778 	 1778 	 1779 	 1 
1779 	 1779 	 1780 	 1 
1780 	 1780 	 1781 	 1 
1781 	 1781 	 1782 	 1 
1782 	 1782 	 1783 	 1 
1783 	 1783 	 1784 	 1 
1784 	 1784 	 1785 	 1 
1785 	 1785 	 1786 	 1 
1786 	 1786 	 1787 	 1 
1787 	 1787 	 1788 	 1 
1788 	 1788 	 1789 	 1 
1789 	 1789 	 1790 	 1 
1790 	 1790 	 1791 	 1 
1791 	 1791 	 1792 	 1 
1792 	 1792 	 1793 	 1 
1793 	 1793 	 1794 	 1 
1794 	 1794 	 1795 	 1 
1795 	 1795 	 1796 	 1 
1796 	 1796 	 1797 	 1 
1797 	 1797 	 1798 	 1 
1798 	 1798 	 1799 	 1 
1799 	 1799 	 1800 	 1 
1800 	 1800 	 1801 	 1 
1801 	 1801 	 1802 	 1 
1802 	 1802 	 1803 	 1 
1803 	 1803 	 1804 	 1 
1804 	 1804 	 1805 	 1 
1805 	 1805 	 1806 	 1 
1806 	 1806 	 1807 	 1 
1807 	 1807 	 1808 	 1 
1808 	 1808 	 1809 	 1 
1809 	 1809 	 1810 	 1 
1810 	 1810 	 1811 	 1 
1811 	 1811 	 1812 	 1 
1812 	 1812 	 1813 	 1 
1813 	 1813 	 1814 	 1 
1814 	 1814 	 1815 	 1 
1815 	 1815 	 1816 	 1 
1816 	 1816 	 1817 	 1 
1817 	 1817 	 1818 	 1 
1818 	 1818 	 1819 	 1 
1819 	 1819 	 1820 	 1 
1820 	 1820 	 1821 	 1 
1821 	 1821 	 1822 	 1 
1822 	 1822 	 1823 	 1 
1823 	 1823 	 1824 	 1 
1824 	 1824 	 1825 	 1 
1825 	 1825 	 1826 	 1 
1826 	 1826 	 1827 	 1 
1827 	 1827 	 1828 	 1 
1828 	 1828 	 1829 	 1 
1829 	 1829 	 1830 	 1 
1830 	 1830 	 1831 	 1 
1831 	 1831 	 1832 	 1 
1832 	 1832 	 1833 	 1 
1833 	 1833 	 1834 	 1 
1834 	 1834 	 1835 	 1 
1835 	 1835 	 1836 	 1 
1836 	 1836 	 1837 	 1 
1837 	 1837 	 1838 	 1 
1838 	 1838 	 1839 	 1 
1839 	 1839 	 1840 	 1 
1840 	 1840 	 1841 	 1 
1841 	 1841 	 1842 	 1 
1842 	 1842 	 1843 	 1 
1843 	 1843 	 1844 	 1 
1844 	 1844 	 1845 	 1 
1845 	 1845 	 1846 	 1 
1846 	 1846 	 1847 	 1 
1847 	 1847 	 1848 	 1 
1848 	 1848 	 1849 	 1 
1849 	 1849 	 1850 	 1 
1850 	 1850 	 1851 	 1 
1851 	 1851 	 1852 	 1 
1852 	 1852 	 1853 	 1 
1853 	 1853 	 1854 	 1 
1854 	 1854 	 1855 	 1 
1855 	 1855 	 1856 	 1 
1856 	 1856 	 1857 	 1 
1857 	 1857 	 1858 	 1 
1858 	 1858 	 1859 	 1 
1859 	 1859 	 1860 	 1 
1860 	 1860 	 1861 	 1 
1861 	 1861 	 1862 	 1 
1862 	 1862 	 1863 	 1 
1863 	 1863 	 1864 	 1 
1864 	 1864 	 1865 	 1 
1865 	 1865 	 1866 	 1 
1866 	 1866 	 1867 	 1 
1867 	 1867 	 1868 	 1 
1868 	 1868 	 1869 	 1 
1869 	 1869 	 1870 	 1 
1870 	 1870 	 1871 	 1 
1871 	 1871 	 1872 	 1 
1872 	 1872 	 1873 	 1 
1873 	 1873 	 1874 	 1 
1874 	 1874 	 1875 	 1 
1875 	 1875 	 1876 	 1 
1876 	 1876 	 1877 	 1 
1877 	 1877 	 1878 	 1 
1878 	 1878 	 1879 	 1 
1879 	 1879 	 1880 	 1 
1880 	 1880 	 1881 	 1 
1881 	 1881 	 1882 	 1 
1882 	 1882 	 1883 	 1 
1883 	 1883 	 1884 	 1 
1884 	 1884 	 1885 	 1 
1885 	 1885 	 1886 	 1 
1886 	 1886 	 1887 	 1 
1887 	 1887 	 1888 	 1 
1888 	 1888 	 1889 	 1 
1889 	 1889 	 1890 	 1 
1890 	 1890 	 1891 	 1 
1891 	 1891 	 1892 	 1 
1892 	 1892 	 1893 	 1 
1893 	 1893 	 1894 	 1 
1894 	 1894 	 1895 	 1 
1895 	 1895 	 1896 	 1 
1896 	 1896 	 1897 	 1 
1897 	 1897 	 1898 	 1 
1898 	 1898 	 1899 	 1 
1899 	 1899 	 1900 	 1 
1900 	 1900 	 1901 	 1 
1901 	 1901 	 1902 	 1 
1902 	 1902 	 1903 	 1 
1903 	 1903 	 1904 	 1 
1904 	 1904 	 1905 	 1 
1905 	 1905 	 1906 	 1 
1906 	 1906 	 1907 	 1 
1907 	 1907 	 1908 	 1 
1908 	 1908 	 1909 	 1 
1909 	 1909 	 1910 	 1 
1910 	 1910 	 1911 	 1 
1911 	 1911 	 1912 	 1 
1912 	 1912 	 1913 	 1 
1913 	 1913 	 1914 	 1 
1914 	 1914 	 1915 	 1 
1915 	 1915 	 1916 	 1 
1916 	 1916 	 1917 	 1 
1917 	 1917 	 1918 	 1 
1918 	 1918 	 1919 	 1 
1919 	 1919 	 1920 	 1 
1920 	 1920 	 1921 	 1 
1921 	 1921 	 1922 	 1 
1922 	 1922 	 1923 	 1 
1923 	 1923 	 1924 	 1 
1924 	 1924 	 1925 	 1 
1925 	 1925 	 1926 	 1 
1926 	 1926 	 1927 	 1 
1927 	 1927 	 1928 	 1 
1928 	 1928 	 1929 	 1 
1929 	 1929 	 1930 	 1 
1930 	 1930 	 1931 	 1 
1931 	 1931 	 1932 	 1 
1932 	 1932 	 1933 	 1 
1933 	 1933 	 1934 	 1 
1934 	 1934 	 1935 	 1 
1935 	 1935 	 1936 	 1 
1936 	 1936 	 1937 	 1 
1937 	 1937 	 1938 	 1 
1938 	 1938 	 1939 	 1 
1939 	 1939 	 1940 	 1 
1940 	 1940 	 1941 	 1 
1941 	 1941 	 1942 	 1 
1942 	 1942 	 1943 	 1 
1943 	 1943 	 1944 	 1 
1944 	 1944 	 1945 	 1 
1945 	 1945 	 1946 	 1 
1946 	 1946 	 1947 	 1 
1947 	 1947 	 1948 	 1 
1948 	 1948 	 1949 	 1 
1949 	 1949 	 1950 	 1 
1950 	 1950 	 1951 	 1 
1951 	 1951 	 1952 	 1 
1952 	 1952 	 1953 	 1 
1953 	 1953 	 1954 	 1 
1954 	 1954 	 1955 	 1 
1955 	 1955 	 1956 	 1 
1956 	 1956 	 1957 	 1 
1957 	 1957 	 1958 	 1 
1958 	 1958 	 1959 	 1 
1959 	 1959 	 1960 	 1 
1960 	 1960 	 1961 	 1 
1961 	 1961 	 1962 	 1 
1962 	 1962 	 1963 	 1 
1963 	 1963 	 1964 	 1 
1964 	 1964 	 1965 	 1 
1965 	 1965 	 1966 	 1 
1966 	 1966 	 1967 	 1 
1967 	 1967 	 1968 	 1 
1968 	 1968 	 1969 	 1 
1969 	 1969 	 1970 	 1 
1970 	 1970 	 1971 	 1 
1971 	 1971 	 1972 	 1 
1972 	 1972 	 1973 	 1 
1973 	 1973 	 1974 	 1 
1974 	 1974 	 1975 	 1 
1975 	 1975 	 1976 	 1 
1976 	 1976 	 1977 	 1 
1977 	 1977 	 1978 	 1 
1978 	 1978 	 1979 	 1 
1979 	 1979 	 1980 	 1 
1980 	 1980 	 1981 	 1 
1981 	 1981 	 1982 	 1 
1982 	 1982 	 1983 	 1 
1983 	 1983 	 1984 	 1 
1984 	 1984 	 1985 	 1 
1985 	 1985 	 1986 	 1 
1986 	 1986 	 1987 	 1 
1987 	 1987 	 1988 	 1 
1988 	 1988 	 1989 	 1 
1989 	 1989 	 1990 	 1 
1990 	 1990 	 1991 	 1 
1991 	 1991 	 1992 	 1 
1992 	 1992 	 1993 	 1 
1993 	 1993 	 1994 	 1 
1994 	 1994 	 1995 	 1 
1995 	 1995 	 1996 	 1 
1996 	 1996 	 1997 	 1 
1997 	 1997 	 1998 	 1 
1998 	 1998 	 1999 	 1 
1999 	 1999 	 2000 	 1 
2000 	 2000 	 2001 	 1 
2001 	 2001 	 2002 	 1 
2002 	 2002 	 2003 	 1 
2003 	 2003 	 2004 	 1 
2004 	 2004 	 2005 	 1 
2005 	 2005 	 2006 	 1 
2006 	 2006 	 2007 	 1 
2007 	 2007 	 2008 	 1 
2008 	 2008 	 2009 	 1 
2009 	 2009 	 2010 	 1 
2010 	 2010 	 2011 	 1 
2011 	 2011 	 2012 	 1 
2012 	 2012 	 2013 	 1 
2013 	 2013 	 2014 	 1 
2014 	 2014 	 2015 	 1 
2015 	 2015 	 2016 	 1 
2016 	 2016 	 2017 	 1 
2017 	 2017 	 2018 	 1 
2018 	 2018 	 2019 	 1 
2019 	 2019 	 2020 	 1 
2020 	 2020 	 2021 	 1 
2021 	 2021 	 2022 	 1 
2022 	 2022 	 2023 	 1 
2023 	 2023 	 2024 	 1 
2024 	 2024 	 2025 	 1 
2025 	 2025 	 2026 	 1 
2026 	 2026 	 2027 	 1 
2027 	 2027 	 2028 	 1 
2028 	 2028 	 2029 	 1 
2029 	 2029 	 2030 	 1 
2030 	 2030 	 2031 	 1 
2031 	 2031 	 2032 	 1 
2032 	 2032 	 2033 	 1 
2033 	 2033 	 2034 	 1 
2034 	 2034 	 2035 	 1 
2035 	 2035 	 2036 	 1 
2036 	 2036 	 2037 	 1 
2037 	 2037 	 2038 	 1 
2038 	 2038 	 2039 	 1 
2039 	 2039 	 2040 	 1 
2040 	 2040 	 2041 	 1 
2041 	 2041 	 2042 	 1 
2042 	 2042 	 2043 	 1 
2043 	 2043 	 2044 	 1 
2044 	 2044 	 2045 	 1 
2045 	 2045 	 2046 	 1 
2046 	 2046 	 2047 	 1 
2047 	 2047 	 2048 	 1 
2048 	 2048 	 2049 	 1 
2049 	 2049 	 2050 	 1 
2050 	 2050 	 2051 	 1 
2051 	 2051 	 2052 	 1 
2052 	 2052 	 2053 	 1 
2053 	 2053 	 2054 	 1 
2054 	 2054 	 2055 	 1 
2055 	 2055 	 2056 	 1 
2056 	 2056 	 2057 	 1 
2057 	 2057 	 2058 	 1 
2058 	 2058 	 2059 	 1 
2059 	 2059 	 2060 	 1 
2060 	 2060 	 2061 	 1 
2061 	 2061 	 2062 	 1 
2062 	 2062 	 2063 	 1 
2063 	 2063 	 2064 	 1 
2064 	 2064 	 2065 	 1 
2065 	 2065 	 2066 	 1 
2066 	 2066 	 2067 	 1 
2067 	 2067 	 2068 	 1 
2068 	 2068 	 2069 	 1 
2069 	 2069 	 2070 	 1 
2070 	 2070 	 2071 	 1 
2071 	 2071 	 2072 	 1 
2072 	 2072 	 2073 	 1 
2073 	 2073 	 2074 	 1 
2074 	 2074 	 2075 	 1 
2075 	 2075 	 2076 	 1 
2076 	 2076 	 2077 	 1 
2077 	 2077 	 2078 	 1 
2078 	 2078 	 2079 	 1 
2079 	 2079 	 2080 	 1 
2080 	 2080 	 2081 	 1 
2081 	 2081 	 2082 	 1 
2082 	 2082 	 2083 	 1 
2083 	 2083 	 2084 	 1 
2084 	 2084 	 2085 	 1 
2085 	 2085 	 2086 	 1 
2086 	 2086 	 2087 	 1 
2087 	 2087 	 2088 	 1 
2088 	 2088 	 2089 	 1 
2089 	 2089 	 2090 	 1 
2090 	 2090 	 2091 	 1 
2091 	 2091 	 2092 	 1 
2092 	 2092 	 2093 	 1 
2093 	 2093 	 2094 	 1 
2094 	 2094 	 2095 	 1 
2095 	 2095 	 2096 	 1 
2096 	 2096 	 2097 	 1 
2097 	 2097 	 2098 	 1 
2098 	 2098 	 2099 	 1 
2099 	 2099 	 2100 	 1 
2100 	 2100 	 2101 	 1 
2101 	 2101 	 2102 	 1 
2102 	 2102 	 2103 	 1 
2103 	 2103 	 2104 	 1 
2104 	 2104 	 2105 	 1 
2105 	 2105 	 2106 	 1 
2106 	 2106 	 2107 	 1 
2107 	 2107 	 2108 	 1 
2108 	 2108 	 2109 	 1 
2109 	 2109 	 2110 	 1 
2110 	 2110 	 2111 	 1 
2111 	 2111 	 2112 	 1 
2112 	 2112 	 2113 	 1 
2113 	 2113 	 2114 	 1 
2114 	 2114 	 2115 	 1 
2115 	 2115 	 2116 	 1 
2116 	 2116 	 2117 	 1 
2117 	 2117 	 2118 	 1 
2118 	 2118 	 2119 	 1 
2119 	 2119 	 2120 	 1 
2120 	 2120 	 2121 	 1 
2121 	 2121 	 2122 	 1 
2122 	 2122 	 2123 	 1 
2123 	 2123 	 2124 	 1 
2124 	 2124 	 2125 	 1 
2125 	 2125 	 2126 	 1 
2126 	 2126 	 2127 	 1 
2127 	 2127 	 2128 	 1 
2128 	 2128 	 2129 	 1 
2129 	 2129 	 2130 	 1 
2130 	 2130 	 2131 	 1 
2131 	 2131 	 2132 	 1 
2132 	 2132 	 2133 	 1 
2133 	 2133 	 2134 	 1 
2134 	 2134 	 2135 	 1 
2135 	 2135 	 2136 	 1 
2136 	 2136 	 2137 	 1 
2137 	 2137 	 2138 	 1 
2138 	 2138 	 2139 	 1 
2139 	 2139 	 2140 	 1 
2140 	 2140 	 2141 	 1 
2141 	 2141 	 2142 	 1 
2142 	 2142 	 2143 	 1 
2143 	 2143 	 2144 	 1 
2144 	 2144 	 2145 	 1 
2145 	 2145 	 2146 	 1 
2146 	 2146 	 2147 	 1 
2147 	 2147 	 2148 	 1 
2148 	 2148 	 2149 	 1 
2149 	 2149 	 2150 	 1 
2150 	 2150 	 2151 	 1 
2151 	 2151 	 2152 	 1 
2152 	 2152 	 2153 	 1 
2153 	 2153 	 2154 	 1 
2154 	 2154 	 2155 	 1 
2155 	 2155 	 2156 	 1 
2156 	 2156 	 2157 	 1 
2157 	 2157 	 2158 	 1 
2158 	 2158 	 2159 	 1 
2159 	 2159 	 2160 	 1 
2160 	 2160 	 2161 	 1 
2161 	 2161 	 2162 	 1 
2162 	 2162 	 2163 	 1 
2163 	 2163 	 2164 	 1 
2164 	 2164 	 2165 	 1 
2165 	 2165 	 2166 	 1 
2166 	 2166 	 2167 	 1 
2167 	 2167 	 2168 	 1 
2168 	 2168 	 2169 	 1 
2169 	 2169 	 2170 	 1 
2170 	 2170 	 2171 	 1 
2171 	 2171 	 2172 	 1 
2172 	 2172 	 2173 	 1 
2173 	 2173 	 2174 	 1 
2174 	 2174 	 2175 	 1 
2175 	 2175 	 2176 	 1 
2176 	 2176 	 2177 	 1 
2177 	 2177 	 2178 	 1 
2178 	 2178 	 2179 	 1 
2179 	 2179 	 2180 	 1 
2180 	 2180 	 2181 	 1 
2181 	 2181 	 2182 	 1 
2182 	 2182 	 2183 	 1 
2183 	 2183 	 2184 	 1 
2184 	 2184 	 2185 	 1 
2185 	 2185 	 2186 	 1 
2186 	 2186 	 2187 	 1 
2187 	 2187 	 2188 	 1 
2188 	 2188 	 2189 	 1 
2189 	 2189 	 2190 	 1 
2190 	 2190 	 2191 	 1 
2191 	 2191 	 2192 	 1 
2192 	 2192 	 2193 	 1 
2193 	 2193 	 2194 	 1 
2194 	 2194 	 2195 	 1 
2195 	 2195 	 2196 	 1 
2196 	 2196 	 2197 	 1 
2197 	 2197 	 2198 	 1 
2198 	 2198 	 2199 	 1 
2199 	 2199 	 2200 	 1 
2200 	 2200 	 2201 	 1 
2201 	 2201 	 2202 	 1 
2202 	 2202 	 2203 	 1 
2203 	 2203 	 2204 	 1 
2204 	 2204 	 2205 	 1 
2205 	 2205 	 2206 	 1 
2206 	 2206 	 2207 	 1 
2207 	 2207 	 2208 	 1 
2208 	 2208 	 2209 	 1 
2209 	 2209 	 2210 	 1 
2210 	 2210 	 2211 	 1 
2211 	 2211 	 2212 	 1 
2212 	 2212 	 2213 	 1 
2213 	 2213 	 2214 	 1 
2214 	 2214 	 2215 	 1 
2215 	 2215 	 2216 	 1 
2216 	 2216 	 2217 	 1 
2217 	 2217 	 2218 	 1 
2218 	 2218 	 2219 	 1 
2219 	 2219 	 2220 	 1 
2220 	 2220 	 2221 	 1 
2221 	 2221 	 2222 	 1 
2222 	 2222 	 2223 	 1 
2223 	 2223 	 2224 	 1 
2224 	 2224 	 2225 	 1 
2225 	 2225 	 2226 	 1 
2226 	 2226 	 2227 	 1 
2227 	 2227 	 2228 	 1 
2228 	 2228 	 2229 	 1 
2229 	 2229 	 2230 	 1 
2230 	 2230 	 2231 	 1 
2231 	 2231 	 2232 	 1 
2232 	 2232 	 2233 	 1 
2233 	 2233 	 2234 	 1 
2234 	 2234 	 2235 	 1 
2235 	 2235 	 2236 	 1 
2236 	 2236 	 2237 	 1 
2237 	 2237 	 2238 	 1 
2238 	 2238 	 2239 	 1 
2239 	 2239 	 2240 	 1 
2240 	 2240 	 2241 	 1 
2241 	 2241 	 2242 	 1 
2242 	 2242 	 2243 	 1 
2243 	 2243 	 2244 	 1 
2244 	 2244 	 2245 	 1 
2245 	 2245 	 2246 	 1 
2246 	 2246 	 2247 	 1 
2247 	 2247 	 2248 	 1 
2248 	 2248 	 2249 	 1 
2249 	 2249 	 2250 	 1 
2250 	 2250 	 2251 	 1 
2251 	 2251 	 2252 	 1 
2252 	 2252 	 2253 	 1 
2253 	 2253 	 2254 	 1 
2254 	 2254 	 2255 	 1 
2255 	 2255 	 2256 	 1 
2256 	 2256 	 2257 	 1 
2257 	 2257 	 2258 	 1 
2258 	 2258 	 2259 	 1 
2259 	 2259 	 2260 	 1 
2260 	 2260 	 2261 	 1 
2261 	 2261 	 2262 	 1 
2262 	 2262 	 2263 	 1 
2263 	 2263 	 2264 	 1 
2264 	 2264 	 2265 	 1 
2265 	 2265 	 2266 	 1 
2266 	 2266 	 2267 	 1 
2267 	 2267 	 2268 	 1 
2268 	 2268 	 2269 	 1 
2269 	 2269 	 2270 	 1 
2270 	 2270 	 2271 	 1 
2271 	 2271 	 2272 	 1 
2272 	 2272 	 2273 	 1 
2273 	 2273 	 2274 	 1 
2274 	 2274 	 2275 	 1 
2275 	 2275 	 2276 	 1 
2276 	 2276 	 2277 	 1 
2277 	 2277 	 2278 	 1 
2278 	 2278 	 2279 	 1 
2279 	 2279 	 2280 	 1 
2280 	 2280 	 2281 	 1 
2281 	 2281 	 2282 	 1 
2282 	 2282 	 2283 	 1 
2283 	 2283 	 2284 	 1 
2284 	 2284 	 2285 	 1 
2285 	 2285 	 2286 	 1 
2286 	 2286 	 2287 	 1 
2287 	 2287 	 2288 	 1 
2288 	 2288 	 2289 	 1 
2289 	 2289 	 2290 	 1 
2290 	 2290 	 2291 	 1 
2291 	 2291 	 2292 	 1 
2292 	 2292 	 2293 	 1 
2293 	 2293 	 2294 	 1 
2294 	 2294 	 2295 	 1 
2295 	 2295 	 2296 	 1 
2296 	 2296 	 2297 	 1 
2297 	 2297 	 2298 	 1 
2298 	 2298 	 2299 	 1 
2299 	 2299 	 2300 	 1 
2300 	 2300 	 2301 	 1 
2301 	 2301 	 2302 	 1 
2302 	 2302 	 2303 	 1 
2303 	 2303 	 2304 	 1 
2304 	 2304 	 2305 	 1 
2305 	 2305 	 2306 	 1 
2306 	 2306 	 2307 	 1 
2307 	 2307 	 2308 	 1 
2308 	 2308 	 2309 	 1 
2309 	 2309 	 2310 	 1 
2310 	 2310 	 2311 	 1 
2311 	 2311 	 2312 	 1 
2312 	 2312 	 2313 	 1 
2313 	 2313 	 2314 	 1 
2314 	 2314 	 2315 	 1 
2315 	 2315 	 2316 	 1 
2316 	 2316 	 2317 	 1 
2317 	 2317 	 2318 	 1 
2318 	 2318 	 2319 	 1 
2319 	 2319 	 2320 	 1 
2320 	 2320 	 2321 	 1 
2321 	 2321 	 2322 	 1 
2322 	 2322 	 2323 	 1 
2323 	 2323 	 2324 	 1 
2324 	 2324 	 2325 	 1 
2325 	 2325 	 2326 	 1 
2326 	 2326 	 2327 	 1 
2327 	 2327 	 2328 	 1 
2328 	 2328 	 2329 	 1 
2329 	 2329 	 2330 	 1 
2330 	 2330 	 2331 	 1 
2331 	 2331 	 2332 	 1 
2332 	 2332 	 2333 	 1 
2333 	 2333 	 2334 	 1 
2334 	 2334 	 2335 	 1 
2335 	 2335 	 2336 	 1 
2336 	 2336 	 2337 	 1 
2337 	 2337 	 2338 	 1 
2338 	 2338 	 2339 	 1 
2339 	 2339 	 2340 	 1 
2340 	 2340 	 2341 	 1 
2341 	 2341 	 2342 	 1 
2342 	 2342 	 2343 	 1 
2343 	 2343 	 2344 	 1 
2344 	 2344 	 2345 	 1 
2345 	 2345 	 2346 	 1 
2346 	 2346 	 2347 	 1 
2347 	 2347 	 2348 	 1 
2348 	 2348 	 2349 	 1 
2349 	 2349 	 2350 	 1 
2350 	 2350 	 2351 	 1 
2351 	 2351 	 2352 	 1 
2352 	 2352 	 2353 	 1 
2353 	 2353 	 2354 	 1 
2354 	 2354 	 2355 	 1 
2355 	 2355 	 2356 	 1 
2356 	 2356 	 2357 	 1 
2357 	 2357 	 2358 	 1 
2358 	 2358 	 2359 	 1 
2359 	 2359 	 2360 	 1 
2360 	 2360 	 2361 	 1 
2361 	 2361 	 2362 	 1 
2362 	 2362 	 2363 	 1 
2363 	 2363 	 2364 	 1 
2364 	 2364 	 2365 	 1 
2365 	 2365 	 2366 	 1 
2366 	 2366 	 2367 	 1 
2367 	 2367 	 2368 	 1 
2368 	 2368 	 2369 	 1 
2369 	 2369 	 2370 	 1 
2370 	 2370 	 2371 	 1 
2371 	 2371 	 2372 	 1 
2372 	 2372 	 2373 	 1 
2373 	 2373 	 2374 	 1 
2374 	 2374 	 2375 	 1 
2375 	 2375 	 2376 	 1 
2376 	 2376 	 2377 	 1 
2377 	 2377 	 2378 	 1 
2378 	 2378 	 2379 	 1 
2379 	 2379 	 2380 	 1 
2380 	 2380 	 2381 	 1 
2381 	 2381 	 2382 	 1 
2382 	 2382 	 2383 	 1 
2383 	 2383 	 2384 	 1 
2384 	 2384 	 2385 	 1 
2385 	 2385 	 2386 	 1 
2386 	 2386 	 2387 	 1 
2387 	 2387 	 2388 	 1 
2388 	 2388 	 2389 	 1 
2389 	 2389 	 2390 	 1 
2390 	 2390 	 2391 	 1 
2391 	 2391 	 2392 	 1 
2392 	 2392 	 2393 	 1 
2393 	 2393 	 2394 	 1 
2394 	 2394 	 2395 	 1 
2395 	 2395 	 2396 	 1 
2396 	 2396 	 2397 	 1 
2397 	 2397 	 2398 	 1 
2398 	 2398 	 2399 	 1 
2399 	 2399 	 2400 	 1 
2400 	 2400 	 2401 	 1 
2401 	 2401 	 2402 	 1 
2402 	 2402 	 2403 	 1 
2403 	 2403 	 2404 	 1 
2404 	 2404 	 2405 	 1 
2405 	 2405 	 2406 	 1 
2406 	 2406 	 2407 	 1 
2407 	 2407 	 2408 	 1 
2408 	 2408 	 2409 	 1 
2409 	 2409 	 2410 	 1 
2410 	 2410 	 2411 	 1 
2411 	 2411 	 2412 	 1 
2412 	 2412 	 2413 	 1 
2413 	 2413 	 2414 	 1 
2414 	 2414 	 2415 	 1 
2415 	 2415 	 2416 	 1 
2416 	 2416 	 2417 	 1 
2417 	 2417 	 2418 	 1 
2418 	 2418 	 2419 	 1 
2419 	 2419 	 2420 	 1 
2420 	 2420 	 2421 	 1 
2421 	 2421 	 2422 	 1 
2422 	 2422 	 2423 	 1 
2423 	 2423 	 2424 	 1 
2424 	 2424 	 2425 	 1 
2425 	 2425 	 2426 	 1 
2426 	 2426 	 2427 	 1 
2427 	 2427 	 2428 	 1 
2428 	 2428 	 2429 	 1 
2429 	 2429 	 2430 	 1 
2430 	 2430 	 2431 	 1 
2431 	 2431 	 2432 	 1 
2432 	 2432 	 2433 	 1 
2433 	 2433 	 2434 	 1 
2434 	 2434 	 2435 	 1 
2435 	 2435 	 2436 	 1 
2436 	 2436 	 2437 	 1 
2437 	 2437 	 2438 	 1 
2438 	 2438 	 2439 	 1 
2439 	 2439 	 2440 	 1 
2440 	 2440 	 2441 	 1 
2441 	 2441 	 2442 	 1 
2442 	 2442 	 2443 	 1 
2443 	 2443 	 2444 	 1 
2444 	 2444 	 2445 	 1 
2445 	 2445 	 2446 	 1 
2446 	 2446 	 2447 	 1 
2447 	 2447 	 2448 	 1 
2448 	 2448 	 2449 	 1 
2449 	 2449 	 2450 	 1 
2450 	 2450 	 2451 	 1 
2451 	 2451 	 2452 	 1 
2452 	 2452 	 2453 	 1 
2453 	 2453 	 2454 	 1 
2454 	 2454 	 2455 	 1 
2455 	 2455 	 2456 	 1 
2456 	 2456 	 2457 	 1 
2457 	 2457 	 2458 	 1 
2458 	 2458 	 2459 	 1 
2459 	 2459 	 2460 	 1 
2460 	 2460 	 2461 	 1 
2461 	 2461 	 2462 	 1 
2462 	 2462 	 2463 	 1 
2463 	 2463 	 2464 	 1 
2464 	 2464 	 2465 	 1 
2465 	 2465 	 2466 	 1 
2466 	 2466 	 2467 	 1 
2467 	 2467 	 2468 	 1 
2468 	 2468 	 2469 	 1 
2469 	 2469 	 2470 	 1 
2470 	 2470 	 2471 	 1 
2471 	 2471 	 2472 	 1 
2472 	 2472 	 2473 	 1 
2473 	 2473 	 2474 	 1 
2474 	 2474 	 2475 	 1 
2475 	 2475 	 2476 	 1 
2476 	 2476 	 2477 	 1 
2477 	 2477 	 2478 	 1 
2478 	 2478 	 2479 	 1 
2479 	 2479 	 2480 	 1 
2480 	 2480 	 2481 	 1 
2481 	 2481 	 2482 	 1 
2482 	 2482 	 2483 	 1 
2483 	 2483 	 2484 	 1 
2484 	 2484 	 2485 	 1 
2485 	 2485 	 2486 	 1 
2486 	 2486 	 2487 	 1 
2487 	 2487 	 2488 	 1 
2488 	 2488 	 2489 	 1 
2489 	 2489 	 2490 	 1 
2490 	 2490 	 2491 	 1 
2491 	 2491 	 2492 	 1 
2492 	 2492 	 2493 	 1 
2493 	 2493 	 2494 	 1 
2494 	 2494 	 2495 	 1 
2495 	 2495 	 2496 	 1 
2496 	 2496 	 2497 	 1 
2497 	 2497 	 2498 	 1 
2498 	 2498 	 2499 	 1 
2499 	 2499 	 2500 	 1 
2500 	 2500 	 2501 	 1 
2501 	 2501 	 2502 	 1 
2502 	 2502 	 2503 	 1 
2503 	 2503 	 2504 	 1 
2504 	 2504 	 2505 	 1 
2505 	 2505 	 2506 	 1 
2506 	 2506 	 2507 	 1 
2507 	 2507 	 2508 	 1 
2508 	 2508 	 2509 	 1 
2509 	 2509 	 2510 	 1 
2510 	 2510 	 2511 	 1 
2511 	 2511 	 2512 	 1 
2512 	 2512 	 2513 	 1 
2513 	 2513 	 2514 	 1 
2514 	 2514 	 2515 	 1 
2515 	 2515 	 2516 	 1 
2516 	 2516 	 2517 	 1 
2517 	 2517 	 2518 	 1 
2518 	 2518 	 2519 	 1 
2519 	 2519 	 2520 	 1 
2520 	 2520 	 2521 	 1 
2521 	 2521 	 2522 	 1 
2522 	 2522 	 2523 	 1 
2523 	 2523 	 2524 	 1 
2524 	 2524 	 2525 	 1 
2525 	 2525 	 2526 	 1 
2526 	 2526 	 2527 	 1 
2527 	 2527 	 2528 	 1 
2528 	 2528 	 2529 	 1 
2529 	 2529 	 2530 	 1 
2530 	 2530 	 2531 	 1 
2531 	 2531 	 2532 	 1 
2532 	 2532 	 2533 	 1 
2533 	 2533 	 2534 	 1 
2534 	 2534 	 2535 	 1 
2535 	 2535 	 2536 	 1 
2536 	 2536 	 2537 	 1 
2537 	 2537 	 2538 	 1 
2538 	 2538 	 2539 	 1 
2539 	 2539 	 2540 	 1 
2540 	 2540 	 2541 	 1 
2541 	 2541 	 2542 	 1 
2542 	 2542 	 2543 	 1 
2543 	 2543 	 2544 	 1 
2544 	 2544 	 2545 	 1 
2545 	 2545 	 2546 	 1 
2546 	 2546 	 2547 	 1 
2547 	 2547 	 2548 	 1 
2548 	 2548 	 2549 	 1 
2549 	 2549 	 2550 	 1 
2550 	 2550 	 2551 	 1 
2551 	 2551 	 2552 	 1 
2552 	 2552 	 2553 	 1 
2553 	 2553 	 2554 	 1 
2554 	 2554 	 2555 	 1 
2555 	 2555 	 2556 	 1 
2556 	 2556 	 2557 	 1 
2557 	 2557 	 2558 	 1 
2558 	 2558 	 2559 	 1 
2559 	 2559 	 2560 	 1 
2560 	 2560 	 2561 	 1 
2561 	 2561 	 2562 	 1 
2562 	 2562 	 2563 	 1 
2563 	 2563 	 2564 	 1 
2564 	 2564 	 2565 	 1 
2565 	 2565 	 2566 	 1 
2566 	 2566 	 2567 	 1 
2567 	 2567 	 2568 	 1 
2568 	 2568 	 2569 	 1 
2569 	 2569 	 2570 	 1 
2570 	 2570 	 2571 	 1 
2571 	 2571 	 2572 	 1 
2572 	 2572 	 2573 	 1 
2573 	 2573 	 2574 	 1 
2574 	 2574 	 2575 	 1 
2575 	 2575 	 2576 	 1 
2576 	 2576 	 2577 	 1 
2577 	 2577 	 2578 	 1 
2578 	 2578 	 2579 	 1 
2579 	 2579 	 2580 	 1 
2580 	 2580 	 2581 	 1 
2581 	 2581 	 2582 	 1 
2582 	 2582 	 2583 	 1 
2583 	 2583 	 2584 	 1 
2584 	 2584 	 2585 	 1 
2585 	 2585 	 2586 	 1 
2586 	 2586 	 2587 	 1 
2587 	 2587 	 2588 	 1 
2588 	 2588 	 2589 	 1 
2589 	 2589 	 2590 	 1 
2590 	 2590 	 2591 	 1 
2591 	 2591 	 2592 	 1 
2592 	 2592 	 2593 	 1 
2593 	 2593 	 2594 	 1 
2594 	 2594 	 2595 	 1 
2595 	 2595 	 2596 	 1 
2596 	 2596 	 2597 	 1 
2597 	 2597 	 2598 	 1 
2598 	 2598 	 2599 	 1 
2599 	 2599 	 2600 	 1 
2600 	 2600 	 2601 	 1 
2601 	 2601 	 2602 	 1 
2602 	 2602 	 2603 	 1 
2603 	 2603 	 2604 	 1 
2604 	 2604 	 2605 	 1 
2605 	 2605 	 2606 	 1 
2606 	 2606 	 2607 	 1 
2607 	 2607 	 2608 	 1 
2608 	 2608 	 2609 	 1 
2609 	 2609 	 2610 	 1 
2610 	 2610 	 2611 	 1 
2611 	 2611 	 2612 	 1 
2612 	 2612 	 2613 	 1 
2613 	 2613 	 2614 	 1 
2614 	 2614 	 2615 	 1 
2615 	 2615 	 2616 	 1 
2616 	 2616 	 2617 	 1 
2617 	 2617 	 2618 	 1 
2618 	 2618 	 2619 	 1 
2619 	 2619 	 2620 	 1 
2620 	 2620 	 2621 	 1 
2621 	 2621 	 2622 	 1 
2622 	 2622 	 2623 	 1 
2623 	 2623 	 2624 	 1 
2624 	 2624 	 2625 	 1 
2625 	 2625 	 2626 	 1 
2626 	 2626 	 2627 	 1 
2627 	 2627 	 2628 	 1 
2628 	 2628 	 2629 	 1 
2629 	 2629 	 2630 	 1 
2630 	 2630 	 2631 	 1 
2631 	 2631 	 2632 	 1 
2632 	 2632 	 2633 	 1 
2633 	 2633 	 2634 	 1 
2634 	 2634 	 2635 	 1 
2635 	 2635 	 2636 	 1 
2636 	 2636 	 2637 	 1 
2637 	 2637 	 2638 	 1 
2638 	 2638 	 2639 	 1 
2639 	 2639 	 2640 	 1 
2640 	 2640 	 2641 	 1 
2641 	 2641 	 2642 	 1 
2642 	 2642 	 2643 	 1 
2643 	 2643 	 2644 	 1 
2644 	 2644 	 2645 	 1 
2645 	 2645 	 2646 	 1 
2646 	 2646 	 2647 	 1 
2647 	 2647 	 2648 	 1 
2648 	 2648 	 2649 	 1 
2649 	 2649 	 2650 	 1 
2650 	 2650 	 2651 	 1 
2651 	 2651 	 2652 	 1 
2652 	 2652 	 2653 	 1 
2653 	 2653 	 2654 	 1 
2654 	 2654 	 2655 	 1 
2655 	 2655 	 2656 	 1 
2656 	 2656 	 2657 	 1 
2657 	 2657 	 2658 	 1 
2658 	 2658 	 2659 	 1 
2659 	 2659 	 2660 	 1 
2660 	 2660 	 2661 	 1 
2661 	 2661 	 2662 	 1 
2662 	 2662 	 2663 	 1 
2663 	 2663 	 2664 	 1 
2664 	 2664 	 2665 	 1 
2665 	 2665 	 2666 	 1 
2666 	 2666 	 2667 	 1 
2667 	 2667 	 2668 	 1 
2668 	 2668 	 2669 	 1 
2669 	 2669 	 2670 	 1 
2670 	 2670 	 2671 	 1 
2671 	 2671 	 2672 	 1 
2672 	 2672 	 2673 	 1 
2673 	 2673 	 2674 	 1 
2674 	 2674 	 2675 	 1 
2675 	 2675 	 2676 	 1 
2676 	 2676 	 2677 	 1 
2677 	 2677 	 2678 	 1 
2678 	 2678 	 2679 	 1 
2679 	 2679 	 2680 	 1 
2680 	 2680 	 2681 	 1 
2681 	 2681 	 2682 	 1 
2682 	 2682 	 2683 	 1 
2683 	 2683 	 2684 	 1 
2684 	 2684 	 2685 	 1 
2685 	 2685 	 2686 	 1 
2686 	 2686 	 2687 	 1 
2687 	 2687 	 2688 	 1 
2688 	 2688 	 2689 	 1 
2689 	 2689 	 2690 	 1 
2690 	 2690 	 2691 	 1 
2691 	 2691 	 2692 	 1 
2692 	 2692 	 2693 	 1 
2693 	 2693 	 2694 	 1 
2694 	 2694 	 2695 	 1 
2695 	 2695 	 2696 	 1 
2696 	 2696 	 2697 	 1 
2697 	 2697 	 2698 	 1 
2698 	 2698 	 2699 	 1 
2699 	 2699 	 2700 	 1 
2700 	 2700 	 2701 	 1 
2701 	 2701 	 2702 	 1 
2702 	 2702 	 2703 	 1 
2703 	 2703 	 2704 	 1 
2704 	 2704 	 2705 	 1 
2705 	 2705 	 2706 	 1 
2706 	 2706 	 2707 	 1 
2707 	 2707 	 2708 	 1 
2708 	 2708 	 2709 	 1 
2709 	 2709 	 2710 	 1 
2710 	 2710 	 2711 	 1 
2711 	 2711 	 2712 	 1 
2712 	 2712 	 2713 	 1 
2713 	 2713 	 2714 	 1 
2714 	 2714 	 2715 	 1 
2715 	 2715 	 2716 	 1 
2716 	 2716 	 2717 	 1 
2717 	 2717 	 2718 	 1 
2718 	 2718 	 2719 	 1 
2719 	 2719 	 2720 	 1 
2720 	 2720 	 2721 	 1 
2721 	 2721 	 2722 	 1 
2722 	 2722 	 2723 	 1 
2723 	 2723 	 2724 	 1 
2724 	 2724 	 2725 	 1 
2725 	 2725 	 2726 	 1 
2726 	 2726 	 2727 	 1 
2727 	 2727 	 2728 	 1 
2728 	 2728 	 2729 	 1 
2729 	 2729 	 2730 	 1 
2730 	 2730 	 2731 	 1 
2731 	 2731 	 2732 	 1 
2732 	 2732 	 2733 	 1 
2733 	 2733 	 2734 	 1 
2734 	 2734 	 2735 	 1 
2735 	 2735 	 2736 	 1 
2736 	 2736 	 2737 	 1 
2737 	 2737 	 2738 	 1 
2738 	 2738 	 2739 	 1 
2739 	 2739 	 2740 	 1 
2740 	 2740 	 2741 	 1 
2741 	 2741 	 2742 	 1 
2742 	 2742 	 2743 	 1 
2743 	 2743 	 2744 	 1 
2744 	 2744 	 2745 	 1 
2745 	 2745 	 2746 	 1 
2746 	 2746 	 2747 	 1 
2747 	 2747 	 2748 	 1 
2748 	 2748 	 2749 	 1 
2749 	 2749 	 2750 	 1 
2750 	 2750 	 2751 	 1 
2751 	 2751 	 2752 	 1 
2752 	 2752 	 2753 	 1 
2753 	 2753 	 2754 	 1 
2754 	 2754 	 2755 	 1 
2755 	 2755 	 2756 	 1 
2756 	 2756 	 2757 	 1 
2757 	 2757 	 2758 	 1 
2758 	 2758 	 2759 	 1 
2759 	 2759 	 2760 	 1 
2760 	 2760 	 2761 	 1 
2761 	 2761 	 2762 	 1 
2762 	 2762 	 2763 	 1 
2763 	 2763 	 2764 	 1 
2764 	 2764 	 2765 	 1 
2765 	 2765 	 2766 	 1 
2766 	 2766 	 2767 	 1 
2767 	 2767 	 2768 	 1 
2768 	 2768 	 2769 	 1 
2769 	 2769 	 2770 	 1 
2770 	 2770 	 2771 	 1 
2771 	 2771 	 2772 	 1 
2772 	 2772 	 2773 	 1 
2773 	 2773 	 2774 	 1 
2774 	 2774 	 2775 	 1 
2775 	 2775 	 2776 	 1 
2776 	 2776 	 2777 	 1 
2777 	 2777 	 2778 	 1 
2778 	 2778 	 2779 	 1 
2779 	 2779 	 2780 	 1 
2780 	 2780 	 2781 	 1 
2781 	 2781 	 2782 	 1 
2782 	 2782 	 2783 	 1 
2783 	 2783 	 2784 	 1 
2784 	 2784 	 2785 	 1 
2785 	 2785 	 2786 	 1 
2786 	 2786 	 2787 	 1 
2787 	 2787 	 2788 	 1 
2788 	 2788 	 2789 	 1 
2789 	 2789 	 2790 	 1 
2790 	 2790 	 2791 	 1 
2791 	 2791 	 2792 	 1 
2792 	 2792 	 2793 	 1 
2793 	 2793 	 2794 	 1 
2794 	 2794 	 2795 	 1 
2795 	 2795 	 2796 	 1 
2796 	 2796 	 2797 	 1 
2797 	 2797 	 2798 	 1 
2798 	 2798 	 2799 	 1 
2799 	 2799 	 2800 	 1 
2800 	 2800 	 2801 	 1 
2801 	 2801 	 2802 	 1 
2802 	 2802 	 2803 	 1 
2803 	 2803 	 2804 	 1 
2804 	 2804 	 2805 	 1 
2805 	 2805 	 2806 	 1 
2806 	 2806 	 2807 	 1 
2807 	 2807 	 2808 	 1 
2808 	 2808 	 2809 	 1 
2809 	 2809 	 2810 	 1 
2810 	 2810 	 2811 	 1 
2811 	 2811 	 2812 	 1 
2812 	 2812 	 2813 	 1 
2813 	 2813 	 2814 	 1 
2814 	 2814 	 2815 	 1 
2815 	 2815 	 2816 	 1 
2816 	 2816 	 2817 	 1 
2817 	 2817 	 2818 	 1 
2818 	 2818 	 2819 	 1 
2819 	 2819 	 2820 	 1 
2820 	 2820 	 2821 	 1 
2821 	 2821 	 2822 	 1 
2822 	 2822 	 2823 	 1 
2823 	 2823 	 2824 	 1 
2824 	 2824 	 2825 	 1 
2825 	 2825 	 2826 	 1 
2826 	 2826 	 2827 	 1 
2827 	 2827 	 2828 	 1 
2828 	 2828 	 2829 	 1 
2829 	 2829 	 2830 	 1 
2830 	 2830 	 2831 	 1 
2831 	 2831 	 2832 	 1 
2832 	 2832 	 2833 	 1 
2833 	 2833 	 2834 	 1 
2834 	 2834 	 2835 	 1 
2835 	 2835 	 2836 	 1 
2836 	 2836 	 2837 	 1 
2837 	 2837 	 2838 	 1 
2838 	 2838 	 2839 	 1 
2839 	 2839 	 2840 	 1 
2840 	 2840 	 2841 	 1 
2841 	 2841 	 2842 	 1 
2842 	 2842 	 2843 	 1 
2843 	 2843 	 2844 	 1 
2844 	 2844 	 2845 	 1 
2845 	 2845 	 2846 	 1 
2846 	 2846 	 2847 	 1 
2847 	 2847 	 2848 	 1 
2848 	 2848 	 2849 	 1 
2849 	 2849 	 2850 	 1 
2850 	 2850 	 2851 	 1 
2851 	 2851 	 2852 	 1 
2852 	 2852 	 2853 	 1 
2853 	 2853 	 2854 	 1 
2854 	 2854 	 2855 	 1 
2855 	 2855 	 2856 	 1 
2856 	 2856 	 2857 	 1 
2857 	 2857 	 2858 	 1 
2858 	 2858 	 2859 	 1 
2859 	 2859 	 2860 	 1 
2860 	 2860 	 2861 	 1 
2861 	 2861 	 2862 	 1 
2862 	 2862 	 2863 	 1 
2863 	 2863 	 2864 	 1 
2864 	 2864 	 2865 	 1 
2865 	 2865 	 2866 	 1 
2866 	 2866 	 2867 	 1 
2867 	 2867 	 2868 	 1 
2868 	 2868 	 2869 	 1 
2869 	 2869 	 2870 	 1 
2870 	 2870 	 2871 	 1 
2871 	 2871 	 2872 	 1 
2872 	 2872 	 2873 	 1 
2873 	 2873 	 2874 	 1 
2874 	 2874 	 2875 	 1 
2875 	 2875 	 2876 	 1 
2876 	 2876 	 2877 	 1 
2877 	 2877 	 2878 	 1 
2878 	 2878 	 2879 	 1 
2879 	 2879 	 2880 	 1 
2880 	 2880 	 2881 	 1 
2881 	 2881 	 2882 	 1 
2882 	 2882 	 2883 	 1 
2883 	 2883 	 2884 	 1 
2884 	 2884 	 2885 	 1 
2885 	 2885 	 2886 	 1 
2886 	 2886 	 2887 	 1 
2887 	 2887 	 2888 	 1 
2888 	 2888 	 2889 	 1 
2889 	 2889 	 2890 	 1 
2890 	 2890 	 2891 	 1 
2891 	 2891 	 2892 	 1 
2892 	 2892 	 2893 	 1 
2893 	 2893 	 2894 	 1 
2894 	 2894 	 2895 	 1 
2895 	 2895 	 2896 	 1 
2896 	 2896 	 2897 	 1 
2897 	 2897 	 2898 	 1 
2898 	 2898 	 2899 	 1 
2899 	 2899 	 2900 	 1 
2900 	 2900 	 2901 	 1 
2901 	 2901 	 2902 	 1 
2902 	 2902 	 2903 	 1 
2903 	 2903 	 2904 	 1 
2904 	 2904 	 2905 	 1 
2905 	 2905 	 2906 	 1 
2906 	 2906 	 2907 	 1 
2907 	 2907 	 2908 	 1 
2908 	 2908 	 2909 	 1 
2909 	 2909 	 2910 	 1 
2910 	 2910 	 2911 	 1 
2911 	 2911 	 2912 	 1 
2912 	 2912 	 2913 	 1 
2913 	 2913 	 2914 	 1 
2914 	 2914 	 2915 	 1 
2915 	 2915 	 2916 	 1 
2916 	 2916 	 2917 	 1 
2917 	 2917 	 2918 	 1 
2918 	 2918 	 2919 	 1 
2919 	 2919 	 2920 	 1 
2920 	 2920 	 2921 	 1 
2921 	 2921 	 2922 	 1 
2922 	 2922 	 2923 	 1 
2923 	 2923 	 2924 	 1 
2924 	 2924 	 2925 	 1 
2925 	 2925 	 2926 	 1 
2926 	 2926 	 2927 	 1 
2927 	 2927 	 2928 	 1 
2928 	 2928 	 2929 	 1 
2929 	 2929 	 2930 	 1 
2930 	 2930 	 2931 	 1 
2931 	 2931 	 2932 	 1 
2932 	 2932 	 2933 	 1 
2933 	 2933 	 2934 	 1 
2934 	 2934 	 2935 	 1 
2935 	 2935 	 2936 	 1 
2936 	 2936 	 2937 	 1 
2937 	 2937 	 2938 	 1 
2938 	 2938 	 2939 	 1 
2939 	 2939 	 2940 	 1 
2940 	 2940 	 2941 	 1 
2941 	 2941 	 2942 	 1 
2942 	 2942 	 2943 	 1 
2943 	 2943 	 2944 	 1 
2944 	 2944 	 2945 	 1 
2945 	 2945 	 2946 	 1 
2946 	 2946 	 2947 	 1 
2947 	 2947 	 2948 	 1 
2948 	 2948 	 2949 	 1 
2949 	 2949 	 2950 	 1 
2950 	 2950 	 2951 	 1 
2951 	 2951 	 2952 	 1 
2952 	 2952 	 2953 	 1 
2953 	 2953 	 2954 	 1 
2954 	 2954 	 2955 	 1 
2955 	 2955 	 2956 	 1 
2956 	 2956 	 2957 	 1 
2957 	 2957 	 2958 	 1 
2958 	 2958 	 2959 	 1 
2959 	 2959 	 2960 	 1 
2960 	 2960 	 2961 	 1 
2961 	 2961 	 2962 	 1 
2962 	 2962 	 2963 	 1 
2963 	 2963 	 2964 	 1 
2964 	 2964 	 2965 	 1 
2965 	 2965 	 2966 	 1 
2966 	 2966 	 2967 	 1 
2967 	 2967 	 2968 	 1 
2968 	 2968 	 2969 	 1 
2969 	 2969 	 2970 	 1 
2970 	 2970 	 2971 	 1 
2971 	 2971 	 2972 	 1 
2972 	 2972 	 2973 	 1 
2973 	 2973 	 2974 	 1 
2974 	 2974 	 2975 	 1 
2975 	 2975 	 2976 	 1 
2976 	 2976 	 2977 	 1 
2977 	 2977 	 2978 	 1 
2978 	 2978 	 2979 	 1 
2979 	 2979 	 2980 	 1 
2980 	 2980 	 2981 	 1 
2981 	 2981 	 2982 	 1 
2982 	 2982 	 2983 	 1 
2983 	 2983 	 2984 	 1 
2984 	 2984 	 2985 	 1 
2985 	 2985 	 2986 	 1 
2986 	 2986 	 2987 	 1 
2987 	 2987 	 2988 	 1 
2988 	 2988 	 2989 	 1 
2989 	 2989 	 2990 	 1 
2990 	 2990 	 2991 	 1 
2991 	 2991 	 2992 	 1 
2992 	 2992 	 2993 	 1 
2993 	 2993 	 2994 	 1 
2994 	 2994 	 2995 	 1 
2995 	 2995 	 2996 	 1 
2996 	 2996 	 2997 	 1 
2997 	 2997 	 2998 	 1 
2998 	 2998 	 2999 	 1 
2999 	 2999 	 3000 	 1 
3000 	 3000 	 3001 	 1 
3001 	 3001 	 3002 	 1 
3002 	 3002 	 3003 	 1 
3003 	 3003 	 3004 	 1 
3004 	 3004 	 3005 	 1 
3005 	 3005 	 3006 	 1 
3006 	 3006 	 3007 	 1 
3007 	 3007 	 3008 	 1 
3008 	 3008 	 3009 	 1 
3009 	 3009 	 3010 	 1 
3010 	 3010 	 3011 	 1 
3011 	 3011 	 3012 	 1 
3012 	 3012 	 3013 	 1 
3013 	 3013 	 3014 	 1 
3014 	 3014 	 3015 	 1 
3015 	 3015 	 3016 	 1 
3016 	 3016 	 3017 	 1 
3017 	 3017 	 3018 	 1 
3018 	 3018 	 3019 	 1 
3019 	 3019 	 3020 	 1 
3020 	 3020 	 3021 	 1 
3021 	 3021 	 3022 	 1 
3022 	 3022 	 3023 	 1 
3023 	 3023 	 3024 	 1 
3024 	 3024 	 3025 	 1 
3025 	 3025 	 3026 	 1 
3026 	 3026 	 3027 	 1 
3027 	 3027 	 3028 	 1 
3028 	 3028 	 3029 	 1 
3029 	 3029 	 3030 	 1 
3030 	 3030 	 3031 	 1 
3031 	 3031 	 3032 	 1 
3032 	 3032 	 3033 	 1 
3033 	 3033 	 3034 	 1 
3034 	 3034 	 3035 	 1 
3035 	 3035 	 3036 	 1 
3036 	 3036 	 3037 	 1 
3037 	 3037 	 3038 	 1 
3038 	 3038 	 3039 	 1 
3039 	 3039 	 3040 	 1 
3040 	 3040 	 3041 	 1 
3041 	 3041 	 3042 	 1 
3042 	 3042 	 3043 	 1 
3043 	 3043 	 3044 	 1 
3044 	 3044 	 3045 	 1 
3045 	 3045 	 3046 	 1 
3046 	 3046 	 3047 	 1 
3047 	 3047 	 3048 	 1 
3048 	 3048 	 3049 	 1 
3049 	 3049 	 3050 	 1 
3050 	 3050 	 3051 	 1 
3051 	 3051 	 3052 	 1 
3052 	 3052 	 3053 	 1 
3053 	 3053 	 3054 	 1 
3054 	 3054 	 3055 	 1 
3055 	 3055 	 3056 	 1 
3056 	 3056 	 3057 	 1 
3057 	 3057 	 3058 	 1 
3058 	 3058 	 3059 	 1 
3059 	 3059 	 3060 	 1 
3060 	 3060 	 3061 	 1 
3061 	 3061 	 3062 	 1 
3062 	 3062 	 3063 	 1 
3063 	 3063 	 3064 	 1 
3064 	 3064 	 3065 	 1 
3065 	 3065 	 3066 	 1 
3066 	 3066 	 3067 	 1 
3067 	 3067 	 3068 	 1 
3068 	 3068 	 3069 	 1 
3069 	 3069 	 3070 	 1 
3070 	 3070 	 3071 	 1 
3071 	 3071 	 3072 	 1 
3072 	 3072 	 3073 	 1 
3073 	 3073 	 3074 	 1 
3074 	 3074 	 3075 	 1 
3075 	 3075 	 3076 	 1 
3076 	 3076 	 3077 	 1 
3077 	 3077 	 3078 	 1 
3078 	 3078 	 3079 	 1 
3079 	 3079 	 3080 	 1 
3080 	 3080 	 3081 	 1 
3081 	 3081 	 3082 	 1 
3082 	 3082 	 3083 	 1 
3083 	 3083 	 3084 	 1 
3084 	 3084 	 3085 	 1 
3085 	 3085 	 3086 	 1 
3086 	 3086 	 3087 	 1 
3087 	 3087 	 3088 	 1 
3088 	 3088 	 3089 	 1 
3089 	 3089 	 3090 	 1 
3090 	 3090 	 3091 	 1 
3091 	 3091 	 3092 	 1 
3092 	 3092 	 3093 	 1 
3093 	 3093 	 3094 	 1 
3094 	 3094 	 3095 	 1 
3095 	 3095 	 3096 	 1 
3096 	 3096 	 3097 	 1 
3097 	 3097 	 3098 	 1 
3098 	 3098 	 3099 	 1 
3099 	 3099 	 3100 	 1 
3100 	 3100 	 3101 	 1 
3101 	 3101 	 3102 	 1 
3102 	 3102 	 3103 	 1 
3103 	 3103 	 3104 	 1 
3104 	 3104 	 3105 	 1 
3105 	 3105 	 3106 	 1 
3106 	 3106 	 3107 	 1 
3107 	 3107 	 3108 	 1 
3108 	 3108 	 3109 	 1 
3109 	 3109 	 3110 	 1 
3110 	 3110 	 3111 	 1 
3111 	 3111 	 3112 	 1 
3112 	 3112 	 3113 	 1 
3113 	 3113 	 3114 	 1 
3114 	 3114 	 3115 	 1 
3115 	 3115 	 3116 	 1 
3116 	 3116 	 3117 	 1 
3117 	 3117 	 3118 	 1 
3118 	 3118 	 3119 	 1 
3119 	 3119 	 3120 	 1 
3120 	 3120 	 3121 	 1 
3121 	 3121 	 3122 	 1 
3122 	 3122 	 3123 	 1 
3123 	 3123 	 3124 	 1 
3124 	 3124 	 3125 	 1 
3125 	 3125 	 3126 	 1 
3126 	 3126 	 3127 	 1 
3127 	 3127 	 3128 	 1 
3128 	 3128 	 3129 	 1 
3129 	 3129 	 3130 	 1 
3130 	 3130 	 3131 	 1 
3131 	 3131 	 3132 	 1 
3132 	 3132 	 3133 	 1 
3133 	 3133 	 3134 	 1 
3134 	 3134 	 3135 	 1 
3135 	 3135 	 3136 	 1 
3136 	 3136 	 3137 	 1 
3137 	 3137 	 3138 	 1 
3138 	 3138 	 3139 	 1 
3139 	 3139 	 3140 	 1 
3140 	 3140 	 3141 	 1 
3141 	 3141 	 3142 	 1 
3142 	 3142 	 3143 	 1 
3143 	 3143 	 3144 	 1 
3144 	 3144 	 3145 	 1 
3145 	 3145 	 3146 	 1 
3146 	 3146 	 3147 	 1 
3147 	 3147 	 3148 	 1 
3148 	 3148 	 3149 	 1 
3149 	 3149 	 3150 	 1 
3150 	 3150 	 3151 	 1 
3151 	 3151 	 3152 	 1 
3152 	 3152 	 3153 	 1 
3153 	 3153 	 3154 	 1 
3154 	 3154 	 3155 	 1 
3155 	 3155 	 3156 	 1 
3156 	 3156 	 3157 	 1 
3157 	 3157 	 3158 	 1 
3158 	 3158 	 3159 	 1 
3159 	 3159 	 3160 	 1 
3160 	 3160 	 3161 	 1 
3161 	 3161 	 3162 	 1 
3162 	 3162 	 3163 	 1 
3163 	 3163 	 3164 	 1 
3164 	 3164 	 3165 	 1 
3165 	 3165 	 3166 	 1 
3166 	 3166 	 3167 	 1 
3167 	 3167 	 3168 	 1 
3168 	 3168 	 3169 	 1 
3169 	 3169 	 3170 	 1 
3170 	 3170 	 3171 	 1 
3171 	 3171 	 3172 	 1 
3172 	 3172 	 3173 	 1 
3173 	 3173 	 3174 	 1 
3174 	 3174 	 3175 	 1 
3175 	 3175 	 3176 	 1 
3176 	 3176 	 3177 	 1 
3177 	 3177 	 3178 	 1 
3178 	 3178 	 3179 	 1 
3179 	 3179 	 3180 	 1 
3180 	 3180 	 3181 	 1 
3181 	 3181 	 3182 	 1 
3182 	 3182 	 3183 	 1 
3183 	 3183 	 3184 	 1 
3184 	 3184 	 3185 	 1 
3185 	 3185 	 3186 	 1 
3186 	 3186 	 3187 	 1 
3187 	 3187 	 3188 	 1 
3188 	 3188 	 3189 	 1 
3189 	 3189 	 3190 	 1 
3190 	 3190 	 3191 	 1 
3191 	 3191 	 3192 	 1 
3192 	 3192 	 3193 	 1 
3193 	 3193 	 3194 	 1 
3194 	 3194 	 3195 	 1 
3195 	 3195 	 3196 	 1 
3196 	 3196 	 3197 	 1 
3197 	 3197 	 3198 	 1 
3198 	 3198 	 3199 	 1 
3199 	 3199 	 3200 	 1 
3200 	 3200 	 3201 	 1 
3201 	 3201 	 3202 	 1 
3202 	 3202 	 3203 	 1 
3203 	 3203 	 3204 	 1 
3204 	 3204 	 3205 	 1 
3205 	 3205 	 3206 	 1 
3206 	 3206 	 3207 	 1 
3207 	 3207 	 3208 	 1 
3208 	 3208 	 3209 	 1 
3209 	 3209 	 3210 	 1 
3210 	 3210 	 3211 	 1 
3211 	 3211 	 3212 	 1 
3212 	 3212 	 3213 	 1 
3213 	 3213 	 3214 	 1 
3214 	 3214 	 3215 	 1 
3215 	 3215 	 3216 	 1 
3216 	 3216 	 3217 	 1 
3217 	 3217 	 3218 	 1 
3218 	 3218 	 3219 	 1 
3219 	 3219 	 3220 	 1 
3220 	 3220 	 3221 	 1 
3221 	 3221 	 3222 	 1 
3222 	 3222 	 3223 	 1 
3223 	 3223 	 3224 	 1 
3224 	 3224 	 3225 	 1 
3225 	 3225 	 3226 	 1 
3226 	 3226 	 3227 	 1 
3227 	 3227 	 3228 	 1 
3228 	 3228 	 3229 	 1 
3229 	 3229 	 3230 	 1 
3230 	 3230 	 3231 	 1 
3231 	 3231 	 3232 	 1 
3232 	 3232 	 3233 	 1 
3233 	 3233 	 3234 	 1 
3234 	 3234 	 3235 	 1 
3235 	 3235 	 3236 	 1 
3236 	 3236 	 3237 	 1 
3237 	 3237 	 3238 	 1 
3238 	 3238 	 3239 	 1 
3239 	 3239 	 3240 	 1 
3240 	 3240 	 3241 	 1 
3241 	 3241 	 3242 	 1 
3242 	 3242 	 3243 	 1 
3243 	 3243 	 3244 	 1 
3244 	 3244 	 3245 	 1 
3245 	 3245 	 3246 	 1 
3246 	 3246 	 3247 	 1 
3247 	 3247 	 3248 	 1 
3248 	 3248 	 3249 	 1 
3249 	 3249 	 3250 	 1 
3250 	 3250 	 3251 	 1 
3251 	 3251 	 3252 	 1 
3252 	 3252 	 3253 	 1 
3253 	 3253 	 3254 	 1 
3254 	 3254 	 3255 	 1 
3255 	 3255 	 3256 	 1 
3256 	 3256 	 3257 	 1 
3257 	 3257 	 3258 	 1 
3258 	 3258 	 3259 	 1 
3259 	 3259 	 3260 	 1 
3260 	 3260 	 3261 	 1 
3261 	 3261 	 3262 	 1 
3262 	 3262 	 3263 	 1 
3263 	 3263 	 3264 	 1 
3264 	 3264 	 3265 	 1 
3265 	 3265 	 3266 	 1 
3266 	 3266 	 3267 	 1 
3267 	 3267 	 3268 	 1 
3268 	 3268 	 3269 	 1 
3269 	 3269 	 3270 	 1 
3270 	 3270 	 3271 	 1 
3271 	 3271 	 3272 	 1 
3272 	 3272 	 3273 	 1 
3273 	 3273 	 3274 	 1 
3274 	 3274 	 3275 	 1 
3275 	 3275 	 3276 	 1 
3276 	 3276 	 3277 	 1 
3277 	 3277 	 3278 	 1 
3278 	 3278 	 3279 	 1 
3279 	 3279 	 3280 	 1 
3280 	 3280 	 3281 	 1 
3281 	 3281 	 3282 	 1 
3282 	 3282 	 3283 	 1 
3283 	 3283 	 3284 	 1 
3284 	 3284 	 3285 	 1 
3285 	 3285 	 3286 	 1 
3286 	 3286 	 3287 	 1 
3287 	 3287 	 3288 	 1 
3288 	 3288 	 3289 	 1 
3289 	 3289 	 3290 	 1 
3290 	 3290 	 3291 	 1 
3291 	 3291 	 3292 	 1 
3292 	 3292 	 3293 	 1 
3293 	 3293 	 3294 	 1 
3294 	 3294 	 3295 	 1 
3295 	 3295 	 3296 	 1 
3296 	 3296 	 3297 	 1 
3297 	 3297 	 3298 	 1 
3298 	 3298 	 3299 	 1 
3299 	 3299 	 3300 	 1 
3300 	 3300 	 3301 	 1 
3301 	 3301 	 3302 	 1 
3302 	 3302 	 3303 	 1 
3303 	 3303 	 3304 	 1 
3304 	 3304 	 3305 	 1 
3305 	 3305 	 3306 	 1 
3306 	 3306 	 3307 	 1 
3307 	 3307 	 3308 	 1 
3308 	 3308 	 3309 	 1 
3309 	 3309 	 3310 	 1 
3310 	 3310 	 3311 	 1 
3311 	 3311 	 3312 	 1 
3312 	 3312 	 3313 	 1 
3313 	 3313 	 3314 	 1 
3314 	 3314 	 3315 	 1 
3315 	 3315 	 3316 	 1 
3316 	 3316 	 3317 	 1 
3317 	 3317 	 3318 	 1 
3318 	 3318 	 3319 	 1 
3319 	 3319 	 3320 	 1 
3320 	 3320 	 3321 	 1 
3321 	 3321 	 3322 	 1 
3322 	 3322 	 3323 	 1 
3323 	 3323 	 3324 	 1 
3324 	 3324 	 3325 	 1 
3325 	 3325 	 3326 	 1 
3326 	 3326 	 3327 	 1 
3327 	 3327 	 3328 	 1 
3328 	 3328 	 3329 	 1 
3329 	 3329 	 3330 	 1 
3330 	 3330 	 3331 	 1 
3331 	 3331 	 3332 	 1 
3332 	 3332 	 3333 	 1 
3333 	 3333 	 3334 	 1 
3334 	 3334 	 3335 	 1 
3335 	 3335 	 3336 	 1 
3336 	 3336 	 3337 	 1 
3337 	 3337 	 3338 	 1 
3338 	 3338 	 3339 	 1 
3339 	 3339 	 3340 	 1 
3340 	 3340 	 3341 	 1 
3341 	 3341 	 3342 	 1 
3342 	 3342 	 3343 	 1 
3343 	 3343 	 3344 	 1 
3344 	 3344 	 3345 	 1 
3345 	 3345 	 3346 	 1 
3346 	 3346 	 3347 	 1 
3347 	 3347 	 3348 	 1 
3348 	 3348 	 3349 	 1 
3349 	 3349 	 3350 	 1 
3350 	 3350 	 3351 	 1 
3351 	 3351 	 3352 	 1 
3352 	 3352 	 3353 	 1 
3353 	 3353 	 3354 	 1 
3354 	 3354 	 3355 	 1 
3355 	 3355 	 3356 	 1 
3356 	 3356 	 3357 	 1 
3357 	 3357 	 3358 	 1 
3358 	 3358 	 3359 	 1 
3359 	 3359 	 3360 	 1 
3360 	 3360 	 3361 	 1 
3361 	 3361 	 3362 	 1 
3362 	 3362 	 3363 	 1 
3363 	 3363 	 3364 	 1 
3364 	 3364 	 3365 	 1 
3365 	 3365 	 3366 	 1 
3366 	 3366 	 3367 	 1 
3367 	 3367 	 3368 	 1 
3368 	 3368 	 3369 	 1 
3369 	 3369 	 3370 	 1 
3370 	 3370 	 3371 	 1 
3371 	 3371 	 3372 	 1 
3372 	 3372 	 3373 	 1 
3373 	 3373 	 3374 	 1 
3374 	 3374 	 3375 	 1 
3375 	 3375 	 3376 	 1 
3376 	 3376 	 3377 	 1 
3377 	 3377 	 3378 	 1 
3378 	 3378 	 3379 	 1 
3379 	 3379 	 3380 	 1 
3380 	 3380 	 3381 	 1 
3381 	 3381 	 3382 	 1 
3382 	 3382 	 3383 	 1 
3383 	 3383 	 3384 	 1 
3384 	 3384 	 3385 	 1 
3385 	 3385 	 3386 	 1 
3386 	 3386 	 3387 	 1 
3387 	 3387 	 3388 	 1 
3388 	 3388 	 3389 	 1 
3389 	 3389 	 3390 	 1 
3390 	 3390 	 3391 	 1 
3391 	 3391 	 3392 	 1 
3392 	 3392 	 3393 	 1 
3393 	 3393 	 3394 	 1 
3394 	 3394 	 3395 	 1 
3395 	 3395 	 3396 	 1 
3396 	 3396 	 3397 	 1 
3397 	 3397 	 3398 	 1 
3398 	 3398 	 3399 	 1 
3399 	 3399 	 3400 	 1 
3400 	 3400 	 3401 	 1 
3401 	 3401 	 3402 	 1 
3402 	 3402 	 3403 	 1 
3403 	 3403 	 3404 	 1 
3404 	 3404 	 3405 	 1 
3405 	 3405 	 3406 	 1 
3406 	 3406 	 3407 	 1 
3407 	 3407 	 3408 	 1 
3408 	 3408 	 3409 	 1 
3409 	 3409 	 3410 	 1 
3410 	 3410 	 3411 	 1 
3411 	 3411 	 3412 	 1 
3412 	 3412 	 3413 	 1 
3413 	 3413 	 3414 	 1 
3414 	 3414 	 3415 	 1 
3415 	 3415 	 3416 	 1 
3416 	 3416 	 3417 	 1 
3417 	 3417 	 3418 	 1 
3418 	 3418 	 3419 	 1 
3419 	 3419 	 3420 	 1 
3420 	 3420 	 3421 	 1 
3421 	 3421 	 3422 	 1 
3422 	 3422 	 3423 	 1 
3423 	 3423 	 3424 	 1 
3424 	 3424 	 3425 	 1 
3425 	 3425 	 3426 	 1 
3426 	 3426 	 3427 	 1 
3427 	 3427 	 3428 	 1 
3428 	 3428 	 3429 	 1 
3429 	 3429 	 3430 	 1 
3430 	 3430 	 3431 	 1 
3431 	 3431 	 3432 	 1 
3432 	 3432 	 3433 	 1 
3433 	 3433 	 3434 	 1 
3434 	 3434 	 3435 	 1 
3435 	 3435 	 3436 	 1 
3436 	 3436 	 3437 	 1 
3437 	 3437 	 3438 	 1 
3438 	 3438 	 3439 	 1 
3439 	 3439 	 3440 	 1 
3440 	 3440 	 3441 	 1 
3441 	 3441 	 3442 	 1 
3442 	 3442 	 3443 	 1 
3443 	 3443 	 3444 	 1 
3444 	 3444 	 3445 	 1 
3445 	 3445 	 3446 	 1 
3446 	 3446 	 3447 	 1 
3447 	 3447 	 3448 	 1 
3448 	 3448 	 3449 	 1 
3449 	 3449 	 3450 	 1 
3450 	 3450 	 3451 	 1 
3451 	 3451 	 3452 	 1 
3452 	 3452 	 3453 	 1 
3453 	 3453 	 3454 	 1 
3454 	 3454 	 3455 	 1 
3455 	 3455 	 3456 	 1 
3456 	 3456 	 3457 	 1 
3457 	 3457 	 3458 	 1 
3458 	 3458 	 3459 	 1 
3459 	 3459 	 3460 	 1 
3460 	 3460 	 3461 	 1 
3461 	 3461 	 3462 	 1 
3462 	 3462 	 3463 	 1 
3463 	 3463 	 3464 	 1 
3464 	 3464 	 3465 	 1 
3465 	 3465 	 3466 	 1 
3466 	 3466 	 3467 	 1 
3467 	 3467 	 3468 	 1 
3468 	 3468 	 3469 	 1 
3469 	 3469 	 3470 	 1 
3470 	 3470 	 3471 	 1 
3471 	 3471 	 3472 	 1 
3472 	 3472 	 3473 	 1 
3473 	 3473 	 3474 	 1 
3474 	 3474 	 3475 	 1 
3475 	 3475 	 3476 	 1 
3476 	 3476 	 3477 	 1 
3477 	 3477 	 3478 	 1 
3478 	 3478 	 3479 	 1 
3479 	 3479 	 3480 	 1 
3480 	 3480 	 3481 	 1 
3481 	 3481 	 3482 	 1 
3482 	 3482 	 3483 	 1 
3483 	 3483 	 3484 	 1 
3484 	 3484 	 3485 	 1 
3485 	 3485 	 3486 	 1 
3486 	 3486 	 3487 	 1 
3487 	 3487 	 3488 	 1 
3488 	 3488 	 3489 	 1 
3489 	 3489 	 3490 	 1 
3490 	 3490 	 3491 	 1 
3491 	 3491 	 3492 	 1 
3492 	 3492 	 3493 	 1 
3493 	 3493 	 3494 	 1 
3494 	 3494 	 3495 	 1 
3495 	 3495 	 3496 	 1 
3496 	 3496 	 3497 	 1 
3497 	 3497 	 3498 	 1 
3498 	 3498 	 3499 	 1 
3499 	 3499 	 3500 	 1 
3500 	 3500 	 3501 	 1 
3501 	 3501 	 3502 	 1 
3502 	 3502 	 3503 	 1 
3503 	 3503 	 3504 	 1 
3504 	 3504 	 3505 	 1 
3505 	 3505 	 3506 	 1 
3506 	 3506 	 3507 	 1 
3507 	 3507 	 3508 	 1 
3508 	 3508 	 3509 	 1 
3509 	 3509 	 3510 	 1 
3510 	 3510 	 3511 	 1 
3511 	 3511 	 3512 	 1 
3512 	 3512 	 3513 	 1 
3513 	 3513 	 3514 	 1 
3514 	 3514 	 3515 	 1 
3515 	 3515 	 3516 	 1 
3516 	 3516 	 3517 	 1 
3517 	 3517 	 3518 	 1 
3518 	 3518 	 3519 	 1 
3519 	 3519 	 3520 	 1 
3520 	 3520 	 3521 	 1 
3521 	 3521 	 3522 	 1 
3522 	 3522 	 3523 	 1 
3523 	 3523 	 3524 	 1 
3524 	 3524 	 3525 	 1 
3525 	 3525 	 3526 	 1 
3526 	 3526 	 3527 	 1 
3527 	 3527 	 3528 	 1 
3528 	 3528 	 3529 	 1 
3529 	 3529 	 3530 	 1 
3530 	 3530 	 3531 	 1 
3531 	 3531 	 3532 	 1 
3532 	 3532 	 3533 	 1 
3533 	 3533 	 3534 	 1 
3534 	 3534 	 3535 	 1 
3535 	 3535 	 3536 	 1 
3536 	 3536 	 3537 	 1 
3537 	 3537 	 3538 	 1 
3538 	 3538 	 3539 	 1 
3539 	 3539 	 3540 	 1 
3540 	 3540 	 3541 	 1 
3541 	 3541 	 3542 	 1 
3542 	 3542 	 3543 	 1 
3543 	 3543 	 3544 	 1 
3544 	 3544 	 3545 	 1 
3545 	 3545 	 3546 	 1 
3546 	 3546 	 3547 	 1 
3547 	 3547 	 3548 	 1 
3548 	 3548 	 3549 	 1 
3549 	 3549 	 3550 	 1 
3550 	 3550 	 3551 	 1 
3551 	 3551 	 3552 	 1 
3552 	 3552 	 3553 	 1 
3553 	 3553 	 3554 	 1 
3554 	 3554 	 3555 	 1 
3555 	 3555 	 3556 	 1 
3556 	 3556 	 3557 	 1 
3557 	 3557 	 3558 	 1 
3558 	 3558 	 3559 	 1 
3559 	 3559 	 3560 	 1 
3560 	 3560 	 3561 	 1 
3561 	 3561 	 3562 	 1 
3562 	 3562 	 3563 	 1 
3563 	 3563 	 3564 	 1 
3564 	 3564 	 3565 	 1 
3565 	 3565 	 3566 	 1 
3566 	 3566 	 3567 	 1 
3567 	 3567 	 3568 	 1 
3568 	 3568 	 3569 	 1 
3569 	 3569 	 3570 	 1 
3570 	 3570 	 3571 	 1 
3571 	 3571 	 3572 	 1 
3572 	 3572 	 3573 	 1 
3573 	 3573 	 3574 	 1 
3574 	 3574 	 3575 	 1 
3575 	 3575 	 3576 	 1 
3576 	 3576 	 3577 	 1 
3577 	 3577 	 3578 	 1 
3578 	 3578 	 3579 	 1 
3579 	 3579 	 3580 	 1 
3580 	 3580 	 3581 	 1 
3581 	 3581 	 3582 	 1 
3582 	 3582 	 3583 	 1 
3583 	 3583 	 3584 	 1 
3584 	 3584 	 3585 	 1 
3585 	 3585 	 3586 	 1 
3586 	 3586 	 3587 	 1 
3587 	 3587 	 3588 	 1 
3588 	 3588 	 3589 	 1 
3589 	 3589 	 3590 	 1 
3590 	 3590 	 3591 	 1 
3591 	 3591 	 3592 	 1 
3592 	 3592 	 3593 	 1 
3593 	 3593 	 3594 	 1 
3594 	 3594 	 3595 	 1 
3595 	 3595 	 3596 	 1 
3596 	 3596 	 3597 	 1 
3597 	 3597 	 3598 	 1 
3598 	 3598 	 3599 	 1 
3599 	 3599 	 3600 	 1 
3600 	 3600 	 3601 	 1 
3601 	 3601 	 3602 	 1 
3602 	 3602 	 3603 	 1 
3603 	 3603 	 3604 	 1 
3604 	 3604 	 3605 	 1 
3605 	 3605 	 3606 	 1 
3606 	 3606 	 3607 	 1 
3607 	 3607 	 3608 	 1 
3608 	 3608 	 3609 	 1 
3609 	 3609 	 3610 	 1 
3610 	 3610 	 3611 	 1 
3611 	 3611 	 3612 	 1 
3612 	 3612 	 3613 	 1 
3613 	 3613 	 3614 	 1 
3614 	 3614 	 3615 	 1 
3615 	 3615 	 3616 	 1 
3616 	 3616 	 3617 	 1 
3617 	 3617 	 3618 	 1 
3618 	 3618 	 3619 	 1 
3619 	 3619 	 3620 	 1 
3620 	 3620 	 3621 	 1 
3621 	 3621 	 3622 	 1 
3622 	 3622 	 3623 	 1 
3623 	 3623 	 3624 	 1 
3624 	 3624 	 3625 	 1 
3625 	 3625 	 3626 	 1 
3626 	 3626 	 3627 	 1 
3627 	 3627 	 3628 	 1 
3628 	 3628 	 3629 	 1 
3629 	 3629 	 3630 	 1 
3630 	 3630 	 3631 	 1 
3631 	 3631 	 3632 	 1 
3632 	 3632 	 3633 	 1 
3633 	 3633 	 3634 	 1 
3634 	 3634 	 3635 	 1 
3635 	 3635 	 3636 	 1 
3636 	 3636 	 3637 	 1 
3637 	 3637 	 3638 	 1 
3638 	 3638 	 3639 	 1 
3639 	 3639 	 3640 	 1 
3640 	 3640 	 3641 	 1 
3641 	 3641 	 3642 	 1 
3642 	 3642 	 3643 	 1 
3643 	 3643 	 3644 	 1 
3644 	 3644 	 3645 	 1 
3645 	 3645 	 3646 	 1 
3646 	 3646 	 3647 	 1 
3647 	 3647 	 3648 	 1 
3648 	 3648 	 3649 	 1 
3649 	 3649 	 3650 	 1 
3650 	 3650 	 3651 	 1 
3651 	 3651 	 3652 	 1 
3652 	 3652 	 3653 	 1 
3653 	 3653 	 3654 	 1 
3654 	 3654 	 3655 	 1 
3655 	 3655 	 3656 	 1 
3656 	 3656 	 3657 	 1 
3657 	 3657 	 3658 	 1 
3658 	 3658 	 3659 	 1 
3659 	 3659 	 3660 	 1 
3660 	 3660 	 3661 	 1 
3661 	 3661 	 3662 	 1 
3662 	 3662 	 3663 	 1 
3663 	 3663 	 3664 	 1 
3664 	 3664 	 3665 	 1 
3665 	 3665 	 3666 	 1 
3666 	 3666 	 3667 	 1 
3667 	 3667 	 3668 	 1 
3668 	 3668 	 3669 	 1 
3669 	 3669 	 3670 	 1 
3670 	 3670 	 3671 	 1 
3671 	 3671 	 3672 	 1 
3672 	 3672 	 3673 	 1 
3673 	 3673 	 3674 	 1 
3674 	 3674 	 3675 	 1 
3675 	 3675 	 3676 	 1 
3676 	 3676 	 3677 	 1 
3677 	 3677 	 3678 	 1 
3678 	 3678 	 3679 	 1 
3679 	 3679 	 3680 	 1 
3680 	 3680 	 3681 	 1 
3681 	 3681 	 3682 	 1 
3682 	 3682 	 3683 	 1 
3683 	 3683 	 3684 	 1 
3684 	 3684 	 3685 	 1 
3685 	 3685 	 3686 	 1 
3686 	 3686 	 3687 	 1 
3687 	 3687 	 3688 	 1 
3688 	 3688 	 3689 	 1 
3689 	 3689 	 3690 	 1 
3690 	 3690 	 3691 	 1 
3691 	 3691 	 3692 	 1 
3692 	 3692 	 3693 	 1 
3693 	 3693 	 3694 	 1 
3694 	 3694 	 3695 	 1 
3695 	 3695 	 3696 	 1 
3696 	 3696 	 3697 	 1 
3697 	 3697 	 3698 	 1 
3698 	 3698 	 3699 	 1 
3699 	 3699 	 3700 	 1 
3700 	 3700 	 3701 	 1 
3701 	 3701 	 3702 	 1 
3702 	 3702 	 3703 	 1 
3703 	 3703 	 3704 	 1 
3704 	 3704 	 3705 	 1 
3705 	 3705 	 3706 	 1 
3706 	 3706 	 3707 	 1 
3707 	 3707 	 3708 	 1 
3708 	 3708 	 3709 	 1 
3709 	 3709 	 3710 	 1 
3710 	 3710 	 3711 	 1 
3711 	 3711 	 3712 	 1 
3712 	 3712 	 3713 	 1 
3713 	 3713 	 3714 	 1 
3714 	 3714 	 3715 	 1 
3715 	 3715 	 3716 	 1 
3716 	 3716 	 3717 	 1 
3717 	 3717 	 3718 	 1 
3718 	 3718 	 3719 	 1 
3719 	 3719 	 3720 	 1 
3720 	 3720 	 3721 	 1 
3721 	 3721 	 3722 	 1 
3722 	 3722 	 3723 	 1 
3723 	 3723 	 3724 	 1 
3724 	 3724 	 3725 	 1 
3725 	 3725 	 3726 	 1 
3726 	 3726 	 3727 	 1 
3727 	 3727 	 3728 	 1 
3728 	 3728 	 3729 	 1 
3729 	 3729 	 3730 	 1 
3730 	 3730 	 3731 	 1 
3731 	 3731 	 3732 	 1 
3732 	 3732 	 3733 	 1 
3733 	 3733 	 3734 	 1 
3734 	 3734 	 3735 	 1 
3735 	 3735 	 3736 	 1 
3736 	 3736 	 3737 	 1 
3737 	 3737 	 3738 	 1 
3738 	 3738 	 3739 	 1 
3739 	 3739 	 3740 	 1 
3740 	 3740 	 3741 	 1 
3741 	 3741 	 3742 	 1 
3742 	 3742 	 3743 	 1 
3743 	 3743 	 3744 	 1 
3744 	 3744 	 3745 	 1 
3745 	 3745 	 3746 	 1 
3746 	 3746 	 3747 	 1 
3747 	 3747 	 3748 	 1 
3748 	 3748 	 3749 	 1 
3749 	 3749 	 3750 	 1 
3750 	 3750 	 3751 	 1 
3751 	 3751 	 3752 	 1 
3752 	 3752 	 3753 	 1 
3753 	 3753 	 3754 	 1 
3754 	 3754 	 3755 	 1 
3755 	 3755 	 3756 	 1 
3756 	 3756 	 3757 	 1 
3757 	 3757 	 3758 	 1 
3758 	 3758 	 3759 	 1 
3759 	 3759 	 3760 	 1 
3760 	 3760 	 3761 	 1 
3761 	 3761 	 3762 	 1 
3762 	 3762 	 3763 	 1 
3763 	 3763 	 3764 	 1 
3764 	 3764 	 3765 	 1 
3765 	 3765 	 3766 	 1 
3766 	 3766 	 3767 	 1 
3767 	 3767 	 3768 	 1 
3768 	 3768 	 3769 	 1 
3769 	 3769 	 3770 	 1 
3770 	 3770 	 3771 	 1 
3771 	 3771 	 3772 	 1 
3772 	 3772 	 3773 	 1 
3773 	 3773 	 3774 	 1 
3774 	 3774 	 3775 	 1 
3775 	 3775 	 3776 	 1 
3776 	 3776 	 3777 	 1 
3777 	 3777 	 3778 	 1 
3778 	 3778 	 3779 	 1 
3779 	 3779 	 3780 	 1 
3780 	 3780 	 3781 	 1 
3781 	 3781 	 3782 	 1 
3782 	 3782 	 3783 	 1 
3783 	 3783 	 3784 	 1 
3784 	 3784 	 3785 	 1 
3785 	 3785 	 3786 	 1 
3786 	 3786 	 3787 	 1 
3787 	 3787 	 3788 	 1 
3788 	 3788 	 3789 	 1 
3789 	 3789 	 3790 	 1 
3790 	 3790 	 3791 	 1 
3791 	 3791 	 3792 	 1 
3792 	 3792 	 3793 	 1 
3793 	 3793 	 3794 	 1 
3794 	 3794 	 3795 	 1 
3795 	 3795 	 3796 	 1 
3796 	 3796 	 3797 	 1 
3797 	 3797 	 3798 	 1 
3798 	 3798 	 3799 	 1 
3799 	 3799 	 3800 	 1 
3800 	 3800 	 3801 	 1 
3801 	 3801 	 3802 	 1 
3802 	 3802 	 3803 	 1 
3803 	 3803 	 3804 	 1 
3804 	 3804 	 3805 	 1 
3805 	 3805 	 3806 	 1 
3806 	 3806 	 3807 	 1 
3807 	 3807 	 3808 	 1 
3808 	 3808 	 3809 	 1 
3809 	 3809 	 3810 	 1 
3810 	 3810 	 3811 	 1 
3811 	 3811 	 3812 	 1 
3812 	 3812 	 3813 	 1 
3813 	 3813 	 3814 	 1 
3814 	 3814 	 3815 	 1 
3815 	 3815 	 3816 	 1 
3816 	 3816 	 3817 	 1 
3817 	 3817 	 3818 	 1 
3818 	 3818 	 3819 	 1 
3819 	 3819 	 3820 	 1 
3820 	 3820 	 3821 	 1 
3821 	 3821 	 3822 	 1 
3822 	 3822 	 3823 	 1 
3823 	 3823 	 3824 	 1 
3824 	 3824 	 3825 	 1 
3825 	 3825 	 3826 	 1 
3826 	 3826 	 3827 	 1 
3827 	 3827 	 3828 	 1 
3828 	 3828 	 3829 	 1 
3829 	 3829 	 3830 	 1 
3830 	 3830 	 3831 	 1 
3831 	 3831 	 3832 	 1 
3832 	 3832 	 3833 	 1 
3833 	 3833 	 3834 	 1 
3834 	 3834 	 3835 	 1 
3835 	 3835 	 3836 	 1 
3836 	 3836 	 3837 	 1 
3837 	 3837 	 3838 	 1 
3838 	 3838 	 3839 	 1 
3839 	 3839 	 3840 	 1 
3840 	 3840 	 3841 	 1 
3841 	 3841 	 3842 	 1 
3842 	 3842 	 3843 	 1 
3843 	 3843 	 3844 	 1 
3844 	 3844 	 3845 	 1 
3845 	 3845 	 3846 	 1 
3846 	 3846 	 3847 	 1 
3847 	 3847 	 3848 	 1 
3848 	 3848 	 3849 	 1 
3849 	 3849 	 3850 	 1 
3850 	 3850 	 3851 	 1 
3851 	 3851 	 3852 	 1 
3852 	 3852 	 3853 	 1 
3853 	 3853 	 3854 	 1 
3854 	 3854 	 3855 	 1 
3855 	 3855 	 3856 	 1 
3856 	 3856 	 3857 	 1 
3857 	 3857 	 3858 	 1 
3858 	 3858 	 3859 	 1 
3859 	 3859 	 3860 	 1 
3860 	 3860 	 3861 	 1 
3861 	 3861 	 3862 	 1 
3862 	 3862 	 3863 	 1 
3863 	 3863 	 3864 	 1 
3864 	 3864 	 3865 	 1 
3865 	 3865 	 3866 	 1 
3866 	 3866 	 3867 	 1 
3867 	 3867 	 3868 	 1 
3868 	 3868 	 3869 	 1 
3869 	 3869 	 3870 	 1 
3870 	 3870 	 3871 	 1 
3871 	 3871 	 3872 	 1 
3872 	 3872 	 3873 	 1 
3873 	 3873 	 3874 	 1 
3874 	 3874 	 3875 	 1 
3875 	 3875 	 3876 	 1 
3876 	 3876 	 3877 	 1 
3877 	 3877 	 3878 	 1 
3878 	 3878 	 3879 	 1 
3879 	 3879 	 3880 	 1 
3880 	 3880 	 3881 	 1 
3881 	 3881 	 3882 	 1 
3882 	 3882 	 3883 	 1 
3883 	 3883 	 3884 	 1 
3884 	 3884 	 3885 	 1 
3885 	 3885 	 3886 	 1 
3886 	 3886 	 3887 	 1 
3887 	 3887 	 3888 	 1 
3888 	 3888 	 3889 	 1 
3889 	 3889 	 3890 	 1 
3890 	 3890 	 3891 	 1 
3891 	 3891 	 3892 	 1 
3892 	 3892 	 3893 	 1 
3893 	 3893 	 3894 	 1 
3894 	 3894 	 3895 	 1 
3895 	 3895 	 3896 	 1 
3896 	 3896 	 3897 	 1 
3897 	 3897 	 3898 	 1 
3898 	 3898 	 3899 	 1 
3899 	 3899 	 3900 	 1 
3900 	 3900 	 3901 	 1 
3901 	 3901 	 3902 	 1 
3902 	 3902 	 3903 	 1 
3903 	 3903 	 3904 	 1 
3904 	 3904 	 3905 	 1 
3905 	 3905 	 3906 	 1 
3906 	 3906 	 3907 	 1 
3907 	 3907 	 3908 	 1 
3908 	 3908 	 3909 	 1 
3909 	 3909 	 3910 	 1 
3910 	 3910 	 3911 	 1 
3911 	 3911 	 3912 	 1 
3912 	 3912 	 3913 	 1 
3913 	 3913 	 3914 	 1 
3914 	 3914 	 3915 	 1 
3915 	 3915 	 3916 	 1 
3916 	 3916 	 3917 	 1 
3917 	 3917 	 3918 	 1 
3918 	 3918 	 3919 	 1 
3919 	 3919 	 3920 	 1 
3920 	 3920 	 3921 	 1 
3921 	 3921 	 3922 	 1 
3922 	 3922 	 3923 	 1 
3923 	 3923 	 3924 	 1 
3924 	 3924 	 3925 	 1 
3925 	 3925 	 3926 	 1 
3926 	 3926 	 3927 	 1 
3927 	 3927 	 3928 	 1 
3928 	 3928 	 3929 	 1 
3929 	 3929 	 3930 	 1 
3930 	 3930 	 3931 	 1 
3931 	 3931 	 3932 	 1 
3932 	 3932 	 3933 	 1 
3933 	 3933 	 3934 	 1 
3934 	 3934 	 3935 	 1 
3935 	 3935 	 3936 	 1 
3936 	 3936 	 3937 	 1 
3937 	 3937 	 3938 	 1 
3938 	 3938 	 3939 	 1 
3939 	 3939 	 3940 	 1 
3940 	 3940 	 3941 	 1 
3941 	 3941 	 3942 	 1 
3942 	 3942 	 3943 	 1 
3943 	 3943 	 3944 	 1 
3944 	 3944 	 3945 	 1 
3945 	 3945 	 3946 	 1 
3946 	 3946 	 3947 	 1 
3947 	 3947 	 3948 	 1 
3948 	 3948 	 3949 	 1 
3949 	 3949 	 3950 	 1 
3950 	 3950 	 3951 	 1 
3951 	 3951 	 3952 	 1 
3952 	 3952 	 3953 	 1 
3953 	 3953 	 3954 	 1 
3954 	 3954 	 3955 	 1 
3955 	 3955 	 3956 	 1 
3956 	 3956 	 3957 	 1 
3957 	 3957 	 3958 	 1 
3958 	 3958 	 3959 	 1 
3959 	 3959 	 3960 	 1 
3960 	 3960 	 3961 	 1 
3961 	 3961 	 3962 	 1 
3962 	 3962 	 3963 	 1 
3963 	 3963 	 3964 	 1 
3964 	 3964 	 3965 	 1 
3965 	 3965 	 3966 	 1 
3966 	 3966 	 3967 	 1 
3967 	 3967 	 3968 	 1 
3968 	 3968 	 3969 	 1 
3969 	 3969 	 3970 	 1 
3970 	 3970 	 3971 	 1 
3971 	 3971 	 3972 	 1 
3972 	 3972 	 3973 	 1 
3973 	 3973 	 3974 	 1 
3974 	 3974 	 3975 	 1 
3975 	 3975 	 3976 	 1 
3976 	 3976 	 3977 	 1 
3977 	 3977 	 3978 	 1 
3978 	 3978 	 3979 	 1 
3979 	 3979 	 3980 	 1 
3980 	 3980 	 3981 	 1 
3981 	 3981 	 3982 	 1 
3982 	 3982 	 3983 	 1 
3983 	 3983 	 3984 	 1 
3984 	 3984 	 3985 	 1 
3985 	 3985 	 3986 	 1 
3986 	 3986 	 3987 	 1 
3987 	 3987 	 3988 	 1 
3988 	 3988 	 3989 	 1 
3989 	 3989 	 3990 	 1 
3990 	 3990 	 3991 	 1 
3991 	 3991 	 3992 	 1 
3992 	 3992 	 3993 	 1 
3993 	 3993 	 3994 	 1 
3994 	 3994 	 3995 	 1 
3995 	 3995 	 3996 	 1 
3996 	 3996 	 3997 	 1 
3997 	 3997 	 3998 	 1 
3998 	 3998 	 3999 	 1 
3999 	 3999 	 4000 	 1 
4000 	 4000 	 4001 	 1 
4001 	 4001 	 4002 	 1 
4002 	 4002 	 4003 	 1 
4003 	 4003 	 4004 	 1 
4004 	 4004 	 4005 	 1 
4005 	 4005 	 4006 	 1 
4006 	 4006 	 4007 	 1 
4007 	 4007 	 4008 	 1 
4008 	 4008 	 4009 	 1 
4009 	 4009 	 4010 	 1 
4010 	 4010 	 4011 	 1 
4011 	 4011 	 4012 	 1 
4012 	 4012 	 4013 	 1 
4013 	 4013 	 4014 	 1 
4014 	 4014 	 4015 	 1 
4015 	 4015 	 4016 	 1 
4016 	 4016 	 4017 	 1 
4017 	 4017 	 4018 	 1 
4018 	 4018 	 4019 	 1 
4019 	 4019 	 4020 	 1 
4020 	 4020 	 4021 	 1 
4021 	 4021 	 4022 	 1 
4022 	 4022 	 4023 	 1 
4023 	 4023 	 4024 	 1 
4024 	 4024 	 4025 	 1 
4025 	 4025 	 4026 	 1 
4026 	 4026 	 4027 	 1 
4027 	 4027 	 4028 	 1 
4028 	 4028 	 4029 	 1 
4029 	 4029 	 4030 	 1 
4030 	 4030 	 4031 	 1 
4031 	 4031 	 4032 	 1 
4032 	 4032 	 4033 	 1 
4033 	 4033 	 4034 	 1 
4034 	 4034 	 4035 	 1 
4035 	 4035 	 4036 	 1 
4036 	 4036 	 4037 	 1 
4037 	 4037 	 4038 	 1 
4038 	 4038 	 4039 	 1 
4039 	 4039 	 4040 	 1 
4040 	 4040 	 4041 	 1 
4041 	 4041 	 4042 	 1 
4042 	 4042 	 4043 	 1 
4043 	 4043 	 4044 	 1 
4044 	 4044 	 4045 	 1 
4045 	 4045 	 4046 	 1 
4046 	 4046 	 4047 	 1 
4047 	 4047 	 4048 	 1 
4048 	 4048 	 4049 	 1 
4049 	 4049 	 4050 	 1 
4050 	 4050 	 4051 	 1 
4051 	 4051 	 4052 	 1 
4052 	 4052 	 4053 	 1 
4053 	 4053 	 4054 	 1 
4054 	 4054 	 4055 	 1 
4055 	 4055 	 4056 	 1 
4056 	 4056 	 4057 	 1 
4057 	 4057 	 4058 	 1 
4058 	 4058 	 4059 	 1 
4059 	 4059 	 4060 	 1 
4060 	 4060 	 4061 	 1 
4061 	 4061 	 4062 	 1 
4062 	 4062 	 4063 	 1 
4063 	 4063 	 4064 	 1 
4064 	 4064 	 4065 	 1 
4065 	 4065 	 4066 	 1 
4066 	 4066 	 4067 	 1 
4067 	 4067 	 4068 	 1 
4068 	 4068 	 4069 	 1 
4069 	 4069 	 4070 	 1 
4070 	 4070 	 4071 	 1 
4071 	 4071 	 4072 	 1 
4072 	 4072 	 4073 	 1 
4073 	 4073 	 4074 	 1 
4074 	 4074 	 4075 	 1 
4075 	 4075 	 4076 	 1 
4076 	 4076 	 4077 	 1 
4077 	 4077 	 4078 	 1 
4078 	 4078 	 4079 	 1 
4079 	 4079 	 4080 	 1 
4080 	 4080 	 4081 	 1 
4081 	 4081 	 4082 	 1 
4082 	 4082 	 4083 	 1 
4083 	 4083 	 4084 	 1 
4084 	 4084 	 4085 	 1 
4085 	 4085 	 4086 	 1 
4086 	 4086 	 4087 	 1 
4087 	 4087 	 4088 	 1 
4088 	 4088 	 4089 	 1 
4089 	 4089 	 4090 	 1 
4090 	 4090 	 4091 	 1 
4091 	 4091 	 4092 	 1 
4092 	 4092 	 4093 	 1 
4093 	 4093 	 4094 	 1 
4094 	 4094 	 4095 	 1 
4095 	 4095 	 4096 	 1 
4096 	 4096 	 4097 	 1 
4097 	 4097 	 4098 	 1 
4098 	 4098 	 4099 	 1 
4099 	 4099 	 4100 	 1 
4100 	 4100 	 4101 	 1 
4101 	 4101 	 4102 	 1 
4102 	 4102 	 4103 	 1 
4103 	 4103 	 4104 	 1 
4104 	 4104 	 4105 	 1 
4105 	 4105 	 4106 	 1 
4106 	 4106 	 4107 	 1 
4107 	 4107 	 4108 	 1 
4108 	 4108 	 4109 	 1 
4109 	 4109 	 4110 	 1 
4110 	 4110 	 4111 	 1 
4111 	 4111 	 4112 	 1 
4112 	 4112 	 4113 	 1 
4113 	 4113 	 4114 	 1 
4114 	 4114 	 4115 	 1 
4115 	 4115 	 4116 	 1 
4116 	 4116 	 4117 	 1 
4117 	 4117 	 4118 	 1 
4118 	 4118 	 4119 	 1 
4119 	 4119 	 4120 	 1 
4120 	 4120 	 4121 	 1 
4121 	 4121 	 4122 	 1 
4122 	 4122 	 4123 	 1 
4123 	 4123 	 4124 	 1 
4124 	 4124 	 4125 	 1 
4125 	 4125 	 4126 	 1 
4126 	 4126 	 4127 	 1 
4127 	 4127 	 4128 	 1 
4128 	 4128 	 4129 	 1 
4129 	 4129 	 4130 	 1 
4130 	 4130 	 4131 	 1 
4131 	 4131 	 4132 	 1 
4132 	 4132 	 4133 	 1 
4133 	 4133 	 4134 	 1 
4134 	 4134 	 4135 	 1 
4135 	 4135 	 4136 	 1 
4136 	 4136 	 4137 	 1 
4137 	 4137 	 4138 	 1 
4138 	 4138 	 4139 	 1 
4139 	 4139 	 4140 	 1 
4140 	 4140 	 4141 	 1 
4141 	 4141 	 4142 	 1 
4142 	 4142 	 4143 	 1 
4143 	 4143 	 4144 	 1 
4144 	 4144 	 4145 	 1 
4145 	 4145 	 4146 	 1 
4146 	 4146 	 4147 	 1 
4147 	 4147 	 4148 	 1 
4148 	 4148 	 4149 	 1 
4149 	 4149 	 4150 	 1 
4150 	 4150 	 4151 	 1 
4151 	 4151 	 4152 	 1 
4152 	 4152 	 4153 	 1 
4153 	 4153 	 4154 	 1 
4154 	 4154 	 4155 	 1 
4155 	 4155 	 4156 	 1 
4156 	 4156 	 4157 	 1 
4157 	 4157 	 4158 	 1 
4158 	 4158 	 4159 	 1 
4159 	 4159 	 4160 	 1 
4160 	 4160 	 4161 	 1 
4161 	 4161 	 4162 	 1 
4162 	 4162 	 4163 	 1 
4163 	 4163 	 4164 	 1 
4164 	 4164 	 4165 	 1 
4165 	 4165 	 4166 	 1 
4166 	 4166 	 4167 	 1 
4167 	 4167 	 4168 	 1 
4168 	 4168 	 4169 	 1 
4169 	 4169 	 4170 	 1 
4170 	 4170 	 4171 	 1 
4171 	 4171 	 4172 	 1 
4172 	 4172 	 4173 	 1 
4173 	 4173 	 4174 	 1 
4174 	 4174 	 4175 	 1 
4175 	 4175 	 4176 	 1 
4176 	 4176 	 4177 	 1 
4177 	 4177 	 4178 	 1 
4178 	 4178 	 4179 	 1 
4179 	 4179 	 4180 	 1 
4180 	 4180 	 4181 	 1 
4181 	 4181 	 4182 	 1 
4182 	 4182 	 4183 	 1 
4183 	 4183 	 4184 	 1 
4184 	 4184 	 4185 	 1 
4185 	 4185 	 4186 	 1 
4186 	 4186 	 4187 	 1 
4187 	 4187 	 4188 	 1 
4188 	 4188 	 4189 	 1 
4189 	 4189 	 4190 	 1 
4190 	 4190 	 4191 	 1 
4191 	 4191 	 4192 	 1 
4192 	 4192 	 4193 	 1 
4193 	 4193 	 4194 	 1 
4194 	 4194 	 4195 	 1 
4195 	 4195 	 4196 	 1 
4196 	 4196 	 4197 	 1 
4197 	 4197 	 4198 	 1 
4198 	 4198 	 4199 	 1 
4199 	 4199 	 4200 	 1 
4200 	 4200 	 4201 	 1 
4201 	 4201 	 4202 	 1 
4202 	 4202 	 4203 	 1 
4203 	 4203 	 4204 	 1 
4204 	 4204 	 4205 	 1 
4205 	 4205 	 4206 	 1 
4206 	 4206 	 4207 	 1 
4207 	 4207 	 4208 	 1 
4208 	 4208 	 4209 	 1 
4209 	 4209 	 4210 	 1 
4210 	 4210 	 4211 	 1 
4211 	 4211 	 4212 	 1 
4212 	 4212 	 4213 	 1 
4213 	 4213 	 4214 	 1 
4214 	 4214 	 4215 	 1 
4215 	 4215 	 4216 	 1 
4216 	 4216 	 4217 	 1 
4217 	 4217 	 4218 	 1 
4218 	 4218 	 4219 	 1 
4219 	 4219 	 4220 	 1 
4220 	 4220 	 4221 	 1 
4221 	 4221 	 4222 	 1 
4222 	 4222 	 4223 	 1 
4223 	 4223 	 4224 	 1 
4224 	 4224 	 4225 	 1 
4225 	 4225 	 4226 	 1 
4226 	 4226 	 4227 	 1 
4227 	 4227 	 4228 	 1 
4228 	 4228 	 4229 	 1 
4229 	 4229 	 4230 	 1 
4230 	 4230 	 4231 	 1 
4231 	 4231 	 4232 	 1 
4232 	 4232 	 4233 	 1 
4233 	 4233 	 4234 	 1 
4234 	 4234 	 4235 	 1 
4235 	 4235 	 4236 	 1 
4236 	 4236 	 4237 	 1 
4237 	 4237 	 4238 	 1 
4238 	 4238 	 4239 	 1 
4239 	 4239 	 4240 	 1 
4240 	 4240 	 4241 	 1 
4241 	 4241 	 4242 	 1 
4242 	 4242 	 4243 	 1 
4243 	 4243 	 4244 	 1 
4244 	 4244 	 4245 	 1 
4245 	 4245 	 4246 	 1 
4246 	 4246 	 4247 	 1 
4247 	 4247 	 4248 	 1 
4248 	 4248 	 4249 	 1 
4249 	 4249 	 4250 	 1 
4250 	 4250 	 4251 	 1 
4251 	 4251 	 4252 	 1 
4252 	 4252 	 4253 	 1 
4253 	 4253 	 4254 	 1 
4254 	 4254 	 4255 	 1 
4255 	 4255 	 4256 	 1 
4256 	 4256 	 4257 	 1 
4257 	 4257 	 4258 	 1 
4258 	 4258 	 4259 	 1 
4259 	 4259 	 4260 	 1 
4260 	 4260 	 4261 	 1 
4261 	 4261 	 4262 	 1 
4262 	 4262 	 4263 	 1 
4263 	 4263 	 4264 	 1 
4264 	 4264 	 4265 	 1 
4265 	 4265 	 4266 	 1 
4266 	 4266 	 4267 	 1 
4267 	 4267 	 4268 	 1 
4268 	 4268 	 4269 	 1 
4269 	 4269 	 4270 	 1 
4270 	 4270 	 4271 	 1 
4271 	 4271 	 4272 	 1 
4272 	 4272 	 4273 	 1 
4273 	 4273 	 4274 	 1 
4274 	 4274 	 4275 	 1 
4275 	 4275 	 4276 	 1 
4276 	 4276 	 4277 	 1 
4277 	 4277 	 4278 	 1 
4278 	 4278 	 4279 	 1 
4279 	 4279 	 4280 	 1 
4280 	 4280 	 4281 	 1 
4281 	 4281 	 4282 	 1 
4282 	 4282 	 4283 	 1 
4283 	 4283 	 4284 	 1 
4284 	 4284 	 4285 	 1 
4285 	 4285 	 4286 	 1 
4286 	 4286 	 4287 	 1 
4287 	 4287 	 4288 	 1 
4288 	 4288 	 4289 	 1 
4289 	 4289 	 4290 	 1 
4290 	 4290 	 4291 	 1 
4291 	 4291 	 4292 	 1 
4292 	 4292 	 4293 	 1 
4293 	 4293 	 4294 	 1 
4294 	 4294 	 4295 	 1 
4295 	 4295 	 4296 	 1 
4296 	 4296 	 4297 	 1 
4297 	 4297 	 4298 	 1 
4298 	 4298 	 4299 	 1 
4299 	 4299 	 4300 	 1 
4300 	 4300 	 4301 	 1 
4301 	 4301 	 4302 	 1 
4302 	 4302 	 4303 	 1 
4303 	 4303 	 4304 	 1 
4304 	 4304 	 4305 	 1 
4305 	 4305 	 4306 	 1 
4306 	 4306 	 4307 	 1 
4307 	 4307 	 4308 	 1 
4308 	 4308 	 4309 	 1 
4309 	 4309 	 4310 	 1 
4310 	 4310 	 4311 	 1 
4311 	 4311 	 4312 	 1 
4312 	 4312 	 4313 	 1 
4313 	 4313 	 4314 	 1 
4314 	 4314 	 4315 	 1 
4315 	 4315 	 4316 	 1 
4316 	 4316 	 4317 	 1 
4317 	 4317 	 4318 	 1 
4318 	 4318 	 4319 	 1 
4319 	 4319 	 4320 	 1 
4320 	 4320 	 4321 	 1 
4321 	 4321 	 4322 	 1 
4322 	 4322 	 4323 	 1 
4323 	 4323 	 4324 	 1 
4324 	 4324 	 4325 	 1 
4325 	 4325 	 4326 	 1 
4326 	 4326 	 4327 	 1 
4327 	 4327 	 4328 	 1 
4328 	 4328 	 4329 	 1 
4329 	 4329 	 4330 	 1 
4330 	 4330 	 4331 	 1 
4331 	 4331 	 4332 	 1 
4332 	 4332 	 4333 	 1 
4333 	 4333 	 4334 	 1 
4334 	 4334 	 4335 	 1 
4335 	 4335 	 4336 	 1 
4336 	 4336 	 4337 	 1 
4337 	 4337 	 4338 	 1 
4338 	 4338 	 4339 	 1 
4339 	 4339 	 4340 	 1 
4340 	 4340 	 4341 	 1 
4341 	 4341 	 4342 	 1 
4342 	 4342 	 4343 	 1 
4343 	 4343 	 4344 	 1 
4344 	 4344 	 4345 	 1 
4345 	 4345 	 4346 	 1 
4346 	 4346 	 4347 	 1 
4347 	 4347 	 4348 	 1 
4348 	 4348 	 4349 	 1 
4349 	 4349 	 4350 	 1 
4350 	 4350 	 4351 	 1 
4351 	 4351 	 4352 	 1 
4352 	 4352 	 4353 	 1 
4353 	 4353 	 4354 	 1 
4354 	 4354 	 4355 	 1 
4355 	 4355 	 4356 	 1 
4356 	 4356 	 4357 	 1 
4357 	 4357 	 4358 	 1 
4358 	 4358 	 4359 	 1 
4359 	 4359 	 4360 	 1 
4360 	 4360 	 4361 	 1 
4361 	 4361 	 4362 	 1 
4362 	 4362 	 4363 	 1 
4363 	 4363 	 4364 	 1 
4364 	 4364 	 4365 	 1 
4365 	 4365 	 4366 	 1 
4366 	 4366 	 4367 	 1 
4367 	 4367 	 4368 	 1 
4368 	 4368 	 4369 	 1 
4369 	 4369 	 4370 	 1 
4370 	 4370 	 4371 	 1 
4371 	 4371 	 4372 	 1 
4372 	 4372 	 4373 	 1 
4373 	 4373 	 4374 	 1 
4374 	 4374 	 4375 	 1 
4375 	 4375 	 4376 	 1 
4376 	 4376 	 4377 	 1 
4377 	 4377 	 4378 	 1 
4378 	 4378 	 4379 	 1 
4379 	 4379 	 4380 	 1 
4380 	 4380 	 4381 	 1 
4381 	 4381 	 4382 	 1 
4382 	 4382 	 4383 	 1 
4383 	 4383 	 4384 	 1 
4384 	 4384 	 4385 	 1 
4385 	 4385 	 4386 	 1 
4386 	 4386 	 4387 	 1 
4387 	 4387 	 4388 	 1 
4388 	 4388 	 4389 	 1 
4389 	 4389 	 4390 	 1 
4390 	 4390 	 4391 	 1 
4391 	 4391 	 4392 	 1 
4392 	 4392 	 4393 	 1 
4393 	 4393 	 4394 	 1 
4394 	 4394 	 4395 	 1 
4395 	 4395 	 4396 	 1 
4396 	 4396 	 4397 	 1 
4397 	 4397 	 4398 	 1 
4398 	 4398 	 4399 	 1 
4399 	 4399 	 4400 	 1 
4400 	 4400 	 4401 	 1 
4401 	 4401 	 4402 	 1 
4402 	 4402 	 4403 	 1 
4403 	 4403 	 4404 	 1 
4404 	 4404 	 4405 	 1 
4405 	 4405 	 4406 	 1 
4406 	 4406 	 4407 	 1 
4407 	 4407 	 4408 	 1 
4408 	 4408 	 4409 	 1 
4409 	 4409 	 4410 	 1 
4410 	 4410 	 4411 	 1 
4411 	 4411 	 4412 	 1 
4412 	 4412 	 4413 	 1 
4413 	 4413 	 4414 	 1 
4414 	 4414 	 4415 	 1 
4415 	 4415 	 4416 	 1 
4416 	 4416 	 4417 	 1 
4417 	 4417 	 4418 	 1 
4418 	 4418 	 4419 	 1 
4419 	 4419 	 4420 	 1 
4420 	 4420 	 4421 	 1 
4421 	 4421 	 4422 	 1 
4422 	 4422 	 4423 	 1 
4423 	 4423 	 4424 	 1 
4424 	 4424 	 4425 	 1 
4425 	 4425 	 4426 	 1 
4426 	 4426 	 4427 	 1 
4427 	 4427 	 4428 	 1 
4428 	 4428 	 4429 	 1 
4429 	 4429 	 4430 	 1 
4430 	 4430 	 4431 	 1 
4431 	 4431 	 4432 	 1 
4432 	 4432 	 4433 	 1 
4433 	 4433 	 4434 	 1 
4434 	 4434 	 4435 	 1 
4435 	 4435 	 4436 	 1 
4436 	 4436 	 4437 	 1 
4437 	 4437 	 4438 	 1 
4438 	 4438 	 4439 	 1 
4439 	 4439 	 4440 	 1 
4440 	 4440 	 4441 	 1 
4441 	 4441 	 4442 	 1 
4442 	 4442 	 4443 	 1 
4443 	 4443 	 4444 	 1 
4444 	 4444 	 4445 	 1 
4445 	 4445 	 4446 	 1 
4446 	 4446 	 4447 	 1 
4447 	 4447 	 4448 	 1 
4448 	 4448 	 4449 	 1 
4449 	 4449 	 4450 	 1 
4450 	 4450 	 4451 	 1 
4451 	 4451 	 4452 	 1 
4452 	 4452 	 4453 	 1 
4453 	 4453 	 4454 	 1 
4454 	 4454 	 4455 	 1 
4455 	 4455 	 4456 	 1 
4456 	 4456 	 4457 	 1 
4457 	 4457 	 4458 	 1 
4458 	 4458 	 4459 	 1 
4459 	 4459 	 4460 	 1 
4460 	 4460 	 4461 	 1 
4461 	 4461 	 4462 	 1 
4462 	 4462 	 4463 	 1 
4463 	 4463 	 4464 	 1 
4464 	 4464 	 4465 	 1 
4465 	 4465 	 4466 	 1 
4466 	 4466 	 4467 	 1 
4467 	 4467 	 4468 	 1 
4468 	 4468 	 4469 	 1 
4469 	 4469 	 4470 	 1 
4470 	 4470 	 4471 	 1 
4471 	 4471 	 4472 	 1 
4472 	 4472 	 4473 	 1 
4473 	 4473 	 4474 	 1 
4474 	 4474 	 4475 	 1 
4475 	 4475 	 4476 	 1 
4476 	 4476 	 4477 	 1 
4477 	 4477 	 4478 	 1 
4478 	 4478 	 4479 	 1 
4479 	 4479 	 4480 	 1 
4480 	 4480 	 4481 	 1 
4481 	 4481 	 4482 	 1 
4482 	 4482 	 4483 	 1 
4483 	 4483 	 4484 	 1 
4484 	 4484 	 4485 	 1 
4485 	 4485 	 4486 	 1 
4486 	 4486 	 4487 	 1 
4487 	 4487 	 4488 	 1 
4488 	 4488 	 4489 	 1 
4489 	 4489 	 4490 	 1 
4490 	 4490 	 4491 	 1 
4491 	 4491 	 4492 	 1 
4492 	 4492 	 4493 	 1 
4493 	 4493 	 4494 	 1 
4494 	 4494 	 4495 	 1 
4495 	 4495 	 4496 	 1 
4496 	 4496 	 4497 	 1 
4497 	 4497 	 4498 	 1 
4498 	 4498 	 4499 	 1 
4499 	 4499 	 4500 	 1 
4500 	 4500 	 4501 	 1 
4501 	 4501 	 4502 	 1 
4502 	 4502 	 4503 	 1 
4503 	 4503 	 4504 	 1 
4504 	 4504 	 4505 	 1 
4505 	 4505 	 4506 	 1 
4506 	 4506 	 4507 	 1 
4507 	 4507 	 4508 	 1 
4508 	 4508 	 4509 	 1 
4509 	 4509 	 4510 	 1 
4510 	 4510 	 4511 	 1 
4511 	 4511 	 4512 	 1 
4512 	 4512 	 4513 	 1 
4513 	 4513 	 4514 	 1 
4514 	 4514 	 4515 	 1 
4515 	 4515 	 4516 	 1 
4516 	 4516 	 4517 	 1 
4517 	 4517 	 4518 	 1 
4518 	 4518 	 4519 	 1 
4519 	 4519 	 4520 	 1 
4520 	 4520 	 4521 	 1 
4521 	 4521 	 4522 	 1 
4522 	 4522 	 4523 	 1 
4523 	 4523 	 4524 	 1 
4524 	 4524 	 4525 	 1 
4525 	 4525 	 4526 	 1 
4526 	 4526 	 4527 	 1 
4527 	 4527 	 4528 	 1 
4528 	 4528 	 4529 	 1 
4529 	 4529 	 4530 	 1 
4530 	 4530 	 4531 	 1 
4531 	 4531 	 4532 	 1 
4532 	 4532 	 4533 	 1 
4533 	 4533 	 4534 	 1 
4534 	 4534 	 4535 	 1 
4535 	 4535 	 4536 	 1 
4536 	 4536 	 4537 	 1 
4537 	 4537 	 4538 	 1 
4538 	 4538 	 4539 	 1 
4539 	 4539 	 4540 	 1 
4540 	 4540 	 4541 	 1 
4541 	 4541 	 4542 	 1 
4542 	 4542 	 4543 	 1 
4543 	 4543 	 4544 	 1 
4544 	 4544 	 4545 	 1 
4545 	 4545 	 4546 	 1 
4546 	 4546 	 4547 	 1 
4547 	 4547 	 4548 	 1 
4548 	 4548 	 4549 	 1 
4549 	 4549 	 4550 	 1 
4550 	 4550 	 4551 	 1 
4551 	 4551 	 4552 	 1 
4552 	 4552 	 4553 	 1 
4553 	 4553 	 4554 	 1 
4554 	 4554 	 4555 	 1 
4555 	 4555 	 4556 	 1 
4556 	 4556 	 4557 	 1 
4557 	 4557 	 4558 	 1 
4558 	 4558 	 4559 	 1 
4559 	 4559 	 4560 	 1 
4560 	 4560 	 4561 	 1 
4561 	 4561 	 4562 	 1 
4562 	 4562 	 4563 	 1 
4563 	 4563 	 4564 	 1 
4564 	 4564 	 4565 	 1 
4565 	 4565 	 4566 	 1 
4566 	 4566 	 4567 	 1 
4567 	 4567 	 4568 	 1 
4568 	 4568 	 4569 	 1 
4569 	 4569 	 4570 	 1 
4570 	 4570 	 4571 	 1 
4571 	 4571 	 4572 	 1 
4572 	 4572 	 4573 	 1 
4573 	 4573 	 4574 	 1 
4574 	 4574 	 4575 	 1 
4575 	 4575 	 4576 	 1 
4576 	 4576 	 4577 	 1 
4577 	 4577 	 4578 	 1 
4578 	 4578 	 4579 	 1 
4579 	 4579 	 4580 	 1 
4580 	 4580 	 4581 	 1 
4581 	 4581 	 4582 	 1 
4582 	 4582 	 4583 	 1 
4583 	 4583 	 4584 	 1 
4584 	 4584 	 4585 	 1 
4585 	 4585 	 4586 	 1 
4586 	 4586 	 4587 	 1 
4587 	 4587 	 4588 	 1 
4588 	 4588 	 4589 	 1 
4589 	 4589 	 4590 	 1 
4590 	 4590 	 4591 	 1 
4591 	 4591 	 4592 	 1 
4592 	 4592 	 4593 	 1 
4593 	 4593 	 4594 	 1 
4594 	 4594 	 4595 	 1 
4595 	 4595 	 4596 	 1 
4596 	 4596 	 4597 	 1 
4597 	 4597 	 4598 	 1 
4598 	 4598 	 4599 	 1 
4599 	 4599 	 4600 	 1 
4600 	 4600 	 4601 	 1 
4601 	 4601 	 4602 	 1 
4602 	 4602 	 4603 	 1 
4603 	 4603 	 4604 	 1 
4604 	 4604 	 4605 	 1 
4605 	 4605 	 4606 	 1 
4606 	 4606 	 4607 	 1 
4607 	 4607 	 4608 	 1 
4608 	 4608 	 4609 	 1 
4609 	 4609 	 4610 	 1 
4610 	 4610 	 4611 	 1 
4611 	 4611 	 4612 	 1 
4612 	 4612 	 4613 	 1 
4613 	 4613 	 4614 	 1 
4614 	 4614 	 4615 	 1 
4615 	 4615 	 4616 	 1 
4616 	 4616 	 4617 	 1 
4617 	 4617 	 4618 	 1 
4618 	 4618 	 4619 	 1 
4619 	 4619 	 4620 	 1 
4620 	 4620 	 4621 	 1 
4621 	 4621 	 4622 	 1 
4622 	 4622 	 4623 	 1 
4623 	 4623 	 4624 	 1 
4624 	 4624 	 4625 	 1 
4625 	 4625 	 4626 	 1 
4626 	 4626 	 4627 	 1 
4627 	 4627 	 4628 	 1 
4628 	 4628 	 4629 	 1 
4629 	 4629 	 4630 	 1 
4630 	 4630 	 4631 	 1 
4631 	 4631 	 4632 	 1 
4632 	 4632 	 4633 	 1 
4633 	 4633 	 4634 	 1 
4634 	 4634 	 4635 	 1 
4635 	 4635 	 4636 	 1 
4636 	 4636 	 4637 	 1 
4637 	 4637 	 4638 	 1 
4638 	 4638 	 4639 	 1 
4639 	 4639 	 4640 	 1 
4640 	 4640 	 4641 	 1 
4641 	 4641 	 4642 	 1 
4642 	 4642 	 4643 	 1 
4643 	 4643 	 4644 	 1 
4644 	 4644 	 4645 	 1 
4645 	 4645 	 4646 	 1 
4646 	 4646 	 4647 	 1 
4647 	 4647 	 4648 	 1 
4648 	 4648 	 4649 	 1 
4649 	 4649 	 4650 	 1 
4650 	 4650 	 4651 	 1 
4651 	 4651 	 4652 	 1 
4652 	 4652 	 4653 	 1 
4653 	 4653 	 4654 	 1 
4654 	 4654 	 4655 	 1 
4655 	 4655 	 4656 	 1 
4656 	 4656 	 4657 	 1 
4657 	 4657 	 4658 	 1 
4658 	 4658 	 4659 	 1 
4659 	 4659 	 4660 	 1 
4660 	 4660 	 4661 	 1 
4661 	 4661 	 4662 	 1 
4662 	 4662 	 4663 	 1 
4663 	 4663 	 4664 	 1 
4664 	 4664 	 4665 	 1 
4665 	 4665 	 4666 	 1 
4666 	 4666 	 4667 	 1 
4667 	 4667 	 4668 	 1 
4668 	 4668 	 4669 	 1 
4669 	 4669 	 4670 	 1 
4670 	 4670 	 4671 	 1 
4671 	 4671 	 4672 	 1 
4672 	 4672 	 4673 	 1 
4673 	 4673 	 4674 	 1 
4674 	 4674 	 4675 	 1 
4675 	 4675 	 4676 	 1 
4676 	 4676 	 4677 	 1 
4677 	 4677 	 4678 	 1 
4678 	 4678 	 4679 	 1 
4679 	 4679 	 4680 	 1 
4680 	 4680 	 4681 	 1 
4681 	 4681 	 4682 	 1 
4682 	 4682 	 4683 	 1 
4683 	 4683 	 4684 	 1 
4684 	 4684 	 4685 	 1 
4685 	 4685 	 4686 	 1 
4686 	 4686 	 4687 	 1 
4687 	 4687 	 4688 	 1 
4688 	 4688 	 4689 	 1 
4689 	 4689 	 4690 	 1 
4690 	 4690 	 4691 	 1 
4691 	 4691 	 4692 	 1 
4692 	 4692 	 4693 	 1 
4693 	 4693 	 4694 	 1 
4694 	 4694 	 4695 	 1 
4695 	 4695 	 4696 	 1 
4696 	 4696 	 4697 	 1 
4697 	 4697 	 4698 	 1 
4698 	 4698 	 4699 	 1 
4699 	 4699 	 4700 	 1 
4700 	 4700 	 4701 	 1 
4701 	 4701 	 4702 	 1 
4702 	 4702 	 4703 	 1 
4703 	 4703 	 4704 	 1 
4704 	 4704 	 4705 	 1 
4705 	 4705 	 4706 	 1 
4706 	 4706 	 4707 	 1 
4707 	 4707 	 4708 	 1 
4708 	 4708 	 4709 	 1 
4709 	 4709 	 4710 	 1 
4710 	 4710 	 4711 	 1 
4711 	 4711 	 4712 	 1 
4712 	 4712 	 4713 	 1 
4713 	 4713 	 4714 	 1 
4714 	 4714 	 4715 	 1 
4715 	 4715 	 4716 	 1 
4716 	 4716 	 4717 	 1 
4717 	 4717 	 4718 	 1 
4718 	 4718 	 4719 	 1 
4719 	 4719 	 4720 	 1 
4720 	 4720 	 4721 	 1 
4721 	 4721 	 4722 	 1 
4722 	 4722 	 4723 	 1 
4723 	 4723 	 4724 	 1 
4724 	 4724 	 4725 	 1 
4725 	 4725 	 4726 	 1 
4726 	 4726 	 4727 	 1 
4727 	 4727 	 4728 	 1 
4728 	 4728 	 4729 	 1 
4729 	 4729 	 4730 	 1 
4730 	 4730 	 4731 	 1 
4731 	 4731 	 4732 	 1 
4732 	 4732 	 4733 	 1 
4733 	 4733 	 4734 	 1 
4734 	 4734 	 4735 	 1 
4735 	 4735 	 4736 	 1 
4736 	 4736 	 4737 	 1 
4737 	 4737 	 4738 	 1 
4738 	 4738 	 4739 	 1 
4739 	 4739 	 4740 	 1 
4740 	 4740 	 4741 	 1 
4741 	 4741 	 4742 	 1 
4742 	 4742 	 4743 	 1 
4743 	 4743 	 4744 	 1 
4744 	 4744 	 4745 	 1 
4745 	 4745 	 4746 	 1 
4746 	 4746 	 4747 	 1 
4747 	 4747 	 4748 	 1 
4748 	 4748 	 4749 	 1 
4749 	 4749 	 4750 	 1 
4750 	 4750 	 4751 	 1 
4751 	 4751 	 4752 	 1 
4752 	 4752 	 4753 	 1 
4753 	 4753 	 4754 	 1 
4754 	 4754 	 4755 	 1 
4755 	 4755 	 4756 	 1 
4756 	 4756 	 4757 	 1 
4757 	 4757 	 4758 	 1 
4758 	 4758 	 4759 	 1 
4759 	 4759 	 4760 	 1 
4760 	 4760 	 4761 	 1 
4761 	 4761 	 4762 	 1 
4762 	 4762 	 4763 	 1 
4763 	 4763 	 4764 	 1 
4764 	 4764 	 4765 	 1 
4765 	 4765 	 4766 	 1 
4766 	 4766 	 4767 	 1 
4767 	 4767 	 4768 	 1 
4768 	 4768 	 4769 	 1 
4769 	 4769 	 4770 	 1 
4770 	 4770 	 4771 	 1 
4771 	 4771 	 4772 	 1 
4772 	 4772 	 4773 	 1 
4773 	 4773 	 4774 	 1 
4774 	 4774 	 4775 	 1 
4775 	 4775 	 4776 	 1 
4776 	 4776 	 4777 	 1 
4777 	 4777 	 4778 	 1 
4778 	 4778 	 4779 	 1 
4779 	 4779 	 4780 	 1 
4780 	 4780 	 4781 	 1 
4781 	 4781 	 4782 	 1 
4782 	 4782 	 4783 	 1 
4783 	 4783 	 4784 	 1 
4784 	 4784 	 4785 	 1 
4785 	 4785 	 4786 	 1 
4786 	 4786 	 4787 	 1 
4787 	 4787 	 4788 	 1 
4788 	 4788 	 4789 	 1 
4789 	 4789 	 4790 	 1 
4790 	 4790 	 4791 	 1 
4791 	 4791 	 4792 	 1 
4792 	 4792 	 4793 	 1 
4793 	 4793 	 4794 	 1 
4794 	 4794 	 4795 	 1 
4795 	 4795 	 4796 	 1 
4796 	 4796 	 4797 	 1 
4797 	 4797 	 4798 	 1 
4798 	 4798 	 4799 	 1 
4799 	 4799 	 4800 	 1 
4800 	 4800 	 4801 	 1 
4801 	 4801 	 4802 	 1 
4802 	 4802 	 4803 	 1 
4803 	 4803 	 4804 	 1 
4804 	 4804 	 4805 	 1 
4805 	 4805 	 4806 	 1 
4806 	 4806 	 4807 	 1 
4807 	 4807 	 4808 	 1 
4808 	 4808 	 4809 	 1 
4809 	 4809 	 4810 	 1 
4810 	 4810 	 4811 	 1 
4811 	 4811 	 4812 	 1 
4812 	 4812 	 4813 	 1 
4813 	 4813 	 4814 	 1 
4814 	 4814 	 4815 	 1 
4815 	 4815 	 4816 	 1 
4816 	 4816 	 4817 	 1 
4817 	 4817 	 4818 	 1 
4818 	 4818 	 4819 	 1 
4819 	 4819 	 4820 	 1 
4820 	 4820 	 4821 	 1 
4821 	 4821 	 4822 	 1 
4822 	 4822 	 4823 	 1 
4823 	 4823 	 4824 	 1 
4824 	 4824 	 4825 	 1 
4825 	 4825 	 4826 	 1 
4826 	 4826 	 4827 	 1 
4827 	 4827 	 4828 	 1 
4828 	 4828 	 4829 	 1 
4829 	 4829 	 4830 	 1 
4830 	 4830 	 4831 	 1 
4831 	 4831 	 4832 	 1 
4832 	 4832 	 4833 	 1 
4833 	 4833 	 4834 	 1 
4834 	 4834 	 4835 	 1 
4835 	 4835 	 4836 	 1 
4836 	 4836 	 4837 	 1 
4837 	 4837 	 4838 	 1 
4838 	 4838 	 4839 	 1 
4839 	 4839 	 4840 	 1 
4840 	 4840 	 4841 	 1 
4841 	 4841 	 4842 	 1 
4842 	 4842 	 4843 	 1 
4843 	 4843 	 4844 	 1 
4844 	 4844 	 4845 	 1 
4845 	 4845 	 4846 	 1 
4846 	 4846 	 4847 	 1 
4847 	 4847 	 4848 	 1 
4848 	 4848 	 4849 	 1 
4849 	 4849 	 4850 	 1 
4850 	 4850 	 4851 	 1 
4851 	 4851 	 4852 	 1 
4852 	 4852 	 4853 	 1 
4853 	 4853 	 4854 	 1 
4854 	 4854 	 4855 	 1 
4855 	 4855 	 4856 	 1 
4856 	 4856 	 4857 	 1 
4857 	 4857 	 4858 	 1 
4858 	 4858 	 4859 	 1 
4859 	 4859 	 4860 	 1 
4860 	 4860 	 4861 	 1 
4861 	 4861 	 4862 	 1 
4862 	 4862 	 4863 	 1 
4863 	 4863 	 4864 	 1 
4864 	 4864 	 4865 	 1 
4865 	 4865 	 4866 	 1 
4866 	 4866 	 4867 	 1 
4867 	 4867 	 4868 	 1 
4868 	 4868 	 4869 	 1 
4869 	 4869 	 4870 	 1 
4870 	 4870 	 4871 	 1 
4871 	 4871 	 4872 	 1 
4872 	 4872 	 4873 	 1 
4873 	 4873 	 4874 	 1 
4874 	 4874 	 4875 	 1 
4875 	 4875 	 4876 	 1 
4876 	 4876 	 4877 	 1 
4877 	 4877 	 4878 	 1 
4878 	 4878 	 4879 	 1 
4879 	 4879 	 4880 	 1 
4880 	 4880 	 4881 	 1 
4881 	 4881 	 4882 	 1 
4882 	 4882 	 4883 	 1 
4883 	 4883 	 4884 	 1 
4884 	 4884 	 4885 	 1 
4885 	 4885 	 4886 	 1 
4886 	 4886 	 4887 	 1 
4887 	 4887 	 4888 	 1 
4888 	 4888 	 4889 	 1 
4889 	 4889 	 4890 	 1 
4890 	 4890 	 4891 	 1 
4891 	 4891 	 4892 	 1 
4892 	 4892 	 4893 	 1 
4893 	 4893 	 4894 	 1 
4894 	 4894 	 4895 	 1 
4895 	 4895 	 4896 	 1 
4896 	 4896 	 4897 	 1 
4897 	 4897 	 4898 	 1 
4898 	 4898 	 4899 	 1 
4899 	 4899 	 4900 	 1 
4900 	 4900 	 4901 	 1 
4901 	 4901 	 4902 	 1 
4902 	 4902 	 4903 	 1 
4903 	 4903 	 4904 	 1 
4904 	 4904 	 4905 	 1 
4905 	 4905 	 4906 	 1 
4906 	 4906 	 4907 	 1 
4907 	 4907 	 4908 	 1 
4908 	 4908 	 4909 	 1 
4909 	 4909 	 4910 	 1 
4910 	 4910 	 4911 	 1 
4911 	 4911 	 4912 	 1 
4912 	 4912 	 4913 	 1 
4913 	 4913 	 4914 	 1 
4914 	 4914 	 4915 	 1 
4915 	 4915 	 4916 	 1 
4916 	 4916 	 4917 	 1 
4917 	 4917 	 4918 	 1 
4918 	 4918 	 4919 	 1 
4919 	 4919 	 4920 	 1 
4920 	 4920 	 4921 	 1 
4921 	 4921 	 4922 	 1 
4922 	 4922 	 4923 	 1 
4923 	 4923 	 4924 	 1 
4924 	 4924 	 4925 	 1 
4925 	 4925 	 4926 	 1 
4926 	 4926 	 4927 	 1 
4927 	 4927 	 4928 	 1 
4928 	 4928 	 4929 	 1 
4929 	 4929 	 4930 	 1 
4930 	 4930 	 4931 	 1 
4931 	 4931 	 4932 	 1 
4932 	 4932 	 4933 	 1 
4933 	 4933 	 4934 	 1 
4934 	 4934 	 4935 	 1 
4935 	 4935 	 4936 	 1 
4936 	 4936 	 4937 	 1 
4937 	 4937 	 4938 	 1 
4938 	 4938 	 4939 	 1 
4939 	 4939 	 4940 	 1 
4940 	 4940 	 4941 	 1 
4941 	 4941 	 4942 	 1 
4942 	 4942 	 4943 	 1 
4943 	 4943 	 4944 	 1 
4944 	 4944 	 4945 	 1 
4945 	 4945 	 4946 	 1 
4946 	 4946 	 4947 	 1 
4947 	 4947 	 4948 	 1 
4948 	 4948 	 4949 	 1 
4949 	 4949 	 4950 	 1 
4950 	 4950 	 4951 	 1 
4951 	 4951 	 4952 	 1 
4952 	 4952 	 4953 	 1 
4953 	 4953 	 4954 	 1 
4954 	 4954 	 4955 	 1 
4955 	 4955 	 4956 	 1 
4956 	 4956 	 4957 	 1 
4957 	 4957 	 4958 	 1 
4958 	 4958 	 4959 	 1 
4959 	 4959 	 4960 	 1 
4960 	 4960 	 4961 	 1 
4961 	 4961 	 4962 	 1 
4962 	 4962 	 4963 	 1 
4963 	 4963 	 4964 	 1 
4964 	 4964 	 4965 	 1 
4965 	 4965 	 4966 	 1 
4966 	 4966 	 4967 	 1 
4967 	 4967 	 4968 	 1 
4968 	 4968 	 4969 	 1 
4969 	 4969 	 4970 	 1 
4970 	 4970 	 4971 	 1 
4971 	 4971 	 4972 	 1 
4972 	 4972 	 4973 	 1 
4973 	 4973 	 4974 	 1 
4974 	 4974 	 4975 	 1 
4975 	 4975 	 4976 	 1 
4976 	 4976 	 4977 	 1 
4977 	 4977 	 4978 	 1 
4978 	 4978 	 4979 	 1 
4979 	 4979 	 4980 	 1 
4980 	 4980 	 4981 	 1 
4981 	 4981 	 4982 	 1 
4982 	 4982 	 4983 	 1 
4983 	 4983 	 4984 	 1 
4984 	 4984 	 4985 	 1 
4985 	 4985 	 4986 	 1 
4986 	 4986 	 4987 	 1 
4987 	 4987 	 4988 	 1 
4988 	 4988 	 4989 	 1 
4989 	 4989 	 4990 	 1 
4990 	 4990 	 4991 	 1 
4991 	 4991 	 4992 	 1 
4992 	 4992 	 4993 	 1 
4993 	 4993 	 4994 	 1 
4994 	 4994 	 4995 	 1 
4995 	 4995 	 4996 	 1 
4996 	 4996 	 4997 	 1 
4997 	 4997 	 4998 	 1 
4998 	 4998 	 4999 	 1 
4999 	 4999 	 5000 	 1 
5000 	 5000 	 5001 	 1 
5001 	 5001 	 5002 	 1 
5002 	 5002 	 5003 	 1 
5003 	 5003 	 5004 	 1 
5004 	 5004 	 5005 	 1 
5005 	 5005 	 5006 	 1 
5006 	 5006 	 5007 	 1 
5007 	 5007 	 5008 	 1 
5008 	 5008 	 5009 	 1 
5009 	 5009 	 5010 	 1 
5010 	 5010 	 5011 	 1 
5011 	 5011 	 5012 	 1 
5012 	 5012 	 5013 	 1 
5013 	 5013 	 5014 	 1 
5014 	 5014 	 5015 	 1 
5015 	 5015 	 5016 	 1 
5016 	 5016 	 5017 	 1 
5017 	 5017 	 5018 	 1 
5018 	 5018 	 5019 	 1 
5019 	 5019 	 5020 	 1 
5020 	 5020 	 5021 	 1 
5021 	 5021 	 5022 	 1 
5022 	 5022 	 5023 	 1 
5023 	 5023 	 5024 	 1 
5024 	 5024 	 5025 	 1 
5025 	 5025 	 5026 	 1 
5026 	 5026 	 5027 	 1 
5027 	 5027 	 5028 	 1 
5028 	 5028 	 5029 	 1 
5029 	 5029 	 5030 	 1 
5030 	 5030 	 5031 	 1 
5031 	 5031 	 5032 	 1 
5032 	 5032 	 5033 	 1 
5033 	 5033 	 5034 	 1 
5034 	 5034 	 5035 	 1 
5035 	 5035 	 5036 	 1 
5036 	 5036 	 5037 	 1 
5037 	 5037 	 5038 	 1 
5038 	 5038 	 5039 	 1 
5039 	 5039 	 5040 	 1 
5040 	 5040 	 5041 	 1 
5041 	 5041 	 5042 	 1 
5042 	 5042 	 5043 	 1 
5043 	 5043 	 5044 	 1 
5044 	 5044 	 5045 	 1 
5045 	 5045 	 5046 	 1 
5046 	 5046 	 5047 	 1 
5047 	 5047 	 5048 	 1 
5048 	 5048 	 5049 	 1 
5049 	 5049 	 5050 	 1 
5050 	 5050 	 5051 	 1 
5051 	 5051 	 5052 	 1 
5052 	 5052 	 5053 	 1 
5053 	 5053 	 5054 	 1 
5054 	 5054 	 5055 	 1 
5055 	 5055 	 5056 	 1 
5056 	 5056 	 5057 	 1 
5057 	 5057 	 5058 	 1 
5058 	 5058 	 5059 	 1 
5059 	 5059 	 5060 	 1 
5060 	 5060 	 5061 	 1 
5061 	 5061 	 5062 	 1 
5062 	 5062 	 5063 	 1 
5063 	 5063 	 5064 	 1 
5064 	 5064 	 5065 	 1 
5065 	 5065 	 5066 	 1 
5066 	 5066 	 5067 	 1 
5067 	 5067 	 5068 	 1 
5068 	 5068 	 5069 	 1 
5069 	 5069 	 5070 	 1 
5070 	 5070 	 5071 	 1 
5071 	 5071 	 5072 	 1 
5072 	 5072 	 5073 	 1 
5073 	 5073 	 5074 	 1 
5074 	 5074 	 5075 	 1 
5075 	 5075 	 5076 	 1 
5076 	 5076 	 5077 	 1 
5077 	 5077 	 5078 	 1 
5078 	 5078 	 5079 	 1 
5079 	 5079 	 5080 	 1 
5080 	 5080 	 5081 	 1 
5081 	 5081 	 5082 	 1 
5082 	 5082 	 5083 	 1 
5083 	 5083 	 5084 	 1 
5084 	 5084 	 5085 	 1 
5085 	 5085 	 5086 	 1 
5086 	 5086 	 5087 	 1 
5087 	 5087 	 5088 	 1 
5088 	 5088 	 5089 	 1 
5089 	 5089 	 5090 	 1 
5090 	 5090 	 5091 	 1 
5091 	 5091 	 5092 	 1 
5092 	 5092 	 5093 	 1 
5093 	 5093 	 5094 	 1 
5094 	 5094 	 5095 	 1 
5095 	 5095 	 5096 	 1 
5096 	 5096 	 5097 	 1 
5097 	 5097 	 5098 	 1 
5098 	 5098 	 5099 	 1 
5099 	 5099 	 5100 	 1 
5100 	 5100 	 5101 	 1 
5101 	 5101 	 5102 	 1 
5102 	 5102 	 5103 	 1 
5103 	 5103 	 5104 	 1 
5104 	 5104 	 5105 	 1 
5105 	 5105 	 5106 	 1 
5106 	 5106 	 5107 	 1 
5107 	 5107 	 5108 	 1 
5108 	 5108 	 5109 	 1 
5109 	 5109 	 5110 	 1 
5110 	 5110 	 5111 	 1 
5111 	 5111 	 5112 	 1 
5112 	 5112 	 5113 	 1 
5113 	 5113 	 5114 	 1 
5114 	 5114 	 5115 	 1 
5115 	 5115 	 5116 	 1 
5116 	 5116 	 5117 	 1 
5117 	 5117 	 5118 	 1 
5118 	 5118 	 5119 	 1 
5119 	 5119 	 5120 	 1 
5120 	 5120 	 5121 	 1 
5121 	 5121 	 5122 	 1 
5122 	 5122 	 5123 	 1 
5123 	 5123 	 5124 	 1 
5124 	 5124 	 5125 	 1 
5125 	 5125 	 5126 	 1 
5126 	 5126 	 5127 	 1 
5127 	 5127 	 5128 	 1 
5128 	 5128 	 5129 	 1 
5129 	 5129 	 5130 	 1 
5130 	 5130 	 5131 	 1 
5131 	 5131 	 5132 	 1 
5132 	 5132 	 5133 	 1 
5133 	 5133 	 5134 	 1 
5134 	 5134 	 5135 	 1 
5135 	 5135 	 5136 	 1 
5136 	 5136 	 5137 	 1 
5137 	 5137 	 5138 	 1 
5138 	 5138 	 5139 	 1 
5139 	 5139 	 5140 	 1 
5140 	 5140 	 5141 	 1 
5141 	 5141 	 5142 	 1 
5142 	 5142 	 5143 	 1 
5143 	 5143 	 5144 	 1 
5144 	 5144 	 5145 	 1 
5145 	 5145 	 5146 	 1 
5146 	 5146 	 5147 	 1 
5147 	 5147 	 5148 	 1 
5148 	 5148 	 5149 	 1 
5149 	 5149 	 5150 	 1 
5150 	 5150 	 5151 	 1 
5151 	 5151 	 5152 	 1 
5152 	 5152 	 5153 	 1 
5153 	 5153 	 5154 	 1 
5154 	 5154 	 5155 	 1 
5155 	 5155 	 5156 	 1 
5156 	 5156 	 5157 	 1 
5157 	 5157 	 5158 	 1 
5158 	 5158 	 5159 	 1 
5159 	 5159 	 5160 	 1 
5160 	 5160 	 5161 	 1 
5161 	 5161 	 5162 	 1 
5162 	 5162 	 5163 	 1 
5163 	 5163 	 5164 	 1 
5164 	 5164 	 5165 	 1 
5165 	 5165 	 5166 	 1 
5166 	 5166 	 5167 	 1 
5167 	 5167 	 5168 	 1 
5168 	 5168 	 5169 	 1 
5169 	 5169 	 5170 	 1 
5170 	 5170 	 5171 	 1 
5171 	 5171 	 5172 	 1 
5172 	 5172 	 5173 	 1 
5173 	 5173 	 5174 	 1 
5174 	 5174 	 5175 	 1 
5175 	 5175 	 5176 	 1 
5176 	 5176 	 5177 	 1 
5177 	 5177 	 5178 	 1 
5178 	 5178 	 5179 	 1 
5179 	 5179 	 5180 	 1 
5180 	 5180 	 5181 	 1 
5181 	 5181 	 5182 	 1 
5182 	 5182 	 5183 	 1 
5183 	 5183 	 5184 	 1 
5184 	 5184 	 5185 	 1 
5185 	 5185 	 5186 	 1 
5186 	 5186 	 5187 	 1 
5187 	 5187 	 5188 	 1 
5188 	 5188 	 5189 	 1 
5189 	 5189 	 5190 	 1 
5190 	 5190 	 5191 	 1 
5191 	 5191 	 5192 	 1 
5192 	 5192 	 5193 	 1 
5193 	 5193 	 5194 	 1 
5194 	 5194 	 5195 	 1 
5195 	 5195 	 5196 	 1 
5196 	 5196 	 5197 	 1 
5197 	 5197 	 5198 	 1 
5198 	 5198 	 5199 	 1 
5199 	 5199 	 5200 	 1 
5200 	 5200 	 5201 	 1 
5201 	 5201 	 5202 	 1 
5202 	 5202 	 5203 	 1 
5203 	 5203 	 5204 	 1 
5204 	 5204 	 5205 	 1 
5205 	 5205 	 5206 	 1 
5206 	 5206 	 5207 	 1 
5207 	 5207 	 5208 	 1 
5208 	 5208 	 5209 	 1 
5209 	 5209 	 5210 	 1 
5210 	 5210 	 5211 	 1 
5211 	 5211 	 5212 	 1 
5212 	 5212 	 5213 	 1 
5213 	 5213 	 5214 	 1 
5214 	 5214 	 5215 	 1 
5215 	 5215 	 5216 	 1 
5216 	 5216 	 5217 	 1 
5217 	 5217 	 5218 	 1 
5218 	 5218 	 5219 	 1 
5219 	 5219 	 5220 	 1 
5220 	 5220 	 5221 	 1 
5221 	 5221 	 5222 	 1 
5222 	 5222 	 5223 	 1 
5223 	 5223 	 5224 	 1 
5224 	 5224 	 5225 	 1 
5225 	 5225 	 5226 	 1 
5226 	 5226 	 5227 	 1 
5227 	 5227 	 5228 	 1 
5228 	 5228 	 5229 	 1 
5229 	 5229 	 5230 	 1 
5230 	 5230 	 5231 	 1 
5231 	 5231 	 5232 	 1 
5232 	 5232 	 5233 	 1 
5233 	 5233 	 5234 	 1 
5234 	 5234 	 5235 	 1 
5235 	 5235 	 5236 	 1 
5236 	 5236 	 5237 	 1 
5237 	 5237 	 5238 	 1 
5238 	 5238 	 5239 	 1 
5239 	 5239 	 5240 	 1 
5240 	 5240 	 5241 	 1 
5241 	 5241 	 5242 	 1 
5242 	 5242 	 5243 	 1 
5243 	 5243 	 5244 	 1 
5244 	 5244 	 5245 	 1 
5245 	 5245 	 5246 	 1 
5246 	 5246 	 5247 	 1 
5247 	 5247 	 5248 	 1 
5248 	 5248 	 5249 	 1 
5249 	 5249 	 5250 	 1 
5250 	 5250 	 5251 	 1 
5251 	 5251 	 5252 	 1 
5252 	 5252 	 5253 	 1 
5253 	 5253 	 5254 	 1 
5254 	 5254 	 5255 	 1 
5255 	 5255 	 5256 	 1 
5256 	 5256 	 5257 	 1 
5257 	 5257 	 5258 	 1 
5258 	 5258 	 5259 	 1 
5259 	 5259 	 5260 	 1 
5260 	 5260 	 5261 	 1 
5261 	 5261 	 5262 	 1 
5262 	 5262 	 5263 	 1 
5263 	 5263 	 5264 	 1 
5264 	 5264 	 5265 	 1 
5265 	 5265 	 5266 	 1 
5266 	 5266 	 5267 	 1 
5267 	 5267 	 5268 	 1 
5268 	 5268 	 5269 	 1 
5269 	 5269 	 5270 	 1 
5270 	 5270 	 5271 	 1 
5271 	 5271 	 5272 	 1 
5272 	 5272 	 5273 	 1 
5273 	 5273 	 5274 	 1 
5274 	 5274 	 5275 	 1 
5275 	 5275 	 5276 	 1 
5276 	 5276 	 5277 	 1 
5277 	 5277 	 5278 	 1 
5278 	 5278 	 5279 	 1 
5279 	 5279 	 5280 	 1 
5280 	 5280 	 5281 	 1 
5281 	 5281 	 5282 	 1 
5282 	 5282 	 5283 	 1 
5283 	 5283 	 5284 	 1 
5284 	 5284 	 5285 	 1 
5285 	 5285 	 5286 	 1 
5286 	 5286 	 5287 	 1 
5287 	 5287 	 5288 	 1 
5288 	 5288 	 5289 	 1 
5289 	 5289 	 5290 	 1 
5290 	 5290 	 5291 	 1 
5291 	 5291 	 5292 	 1 
5292 	 5292 	 5293 	 1 
5293 	 5293 	 5294 	 1 
5294 	 5294 	 5295 	 1 
5295 	 5295 	 5296 	 1 
5296 	 5296 	 5297 	 1 
5297 	 5297 	 5298 	 1 
5298 	 5298 	 5299 	 1 
5299 	 5299 	 5300 	 1 
5300 	 5300 	 5301 	 1 
5301 	 5301 	 5302 	 1 
5302 	 5302 	 5303 	 1 
5303 	 5303 	 5304 	 1 
5304 	 5304 	 5305 	 1 
5305 	 5305 	 5306 	 1 
5306 	 5306 	 5307 	 1 
5307 	 5307 	 5308 	 1 
5308 	 5308 	 5309 	 1 
5309 	 5309 	 5310 	 1 
5310 	 5310 	 5311 	 1 
5311 	 5311 	 5312 	 1 
5312 	 5312 	 5313 	 1 
5313 	 5313 	 5314 	 1 
5314 	 5314 	 5315 	 1 
5315 	 5315 	 5316 	 1 
5316 	 5316 	 5317 	 1 
5317 	 5317 	 5318 	 1 
5318 	 5318 	 5319 	 1 
5319 	 5319 	 5320 	 1 
5320 	 5320 	 5321 	 1 
5321 	 5321 	 5322 	 1 
5322 	 5322 	 5323 	 1 
5323 	 5323 	 5324 	 1 
5324 	 5324 	 5325 	 1 
5325 	 5325 	 5326 	 1 
5326 	 5326 	 5327 	 1 
5327 	 5327 	 5328 	 1 
5328 	 5328 	 5329 	 1 
5329 	 5329 	 5330 	 1 
5330 	 5330 	 5331 	 1 
5331 	 5331 	 5332 	 1 
5332 	 5332 	 5333 	 1 
5333 	 5333 	 5334 	 1 
5334 	 5334 	 5335 	 1 
5335 	 5335 	 5336 	 1 
5336 	 5336 	 5337 	 1 
5337 	 5337 	 5338 	 1 
5338 	 5338 	 5339 	 1 
5339 	 5339 	 5340 	 1 
5340 	 5340 	 5341 	 1 
5341 	 5341 	 5342 	 1 
5342 	 5342 	 5343 	 1 
5343 	 5343 	 5344 	 1 
5344 	 5344 	 5345 	 1 
5345 	 5345 	 5346 	 1 
5346 	 5346 	 5347 	 1 
5347 	 5347 	 5348 	 1 
5348 	 5348 	 5349 	 1 
5349 	 5349 	 5350 	 1 
5350 	 5350 	 5351 	 1 
5351 	 5351 	 5352 	 1 
5352 	 5352 	 5353 	 1 
5353 	 5353 	 5354 	 1 
5354 	 5354 	 5355 	 1 
5355 	 5355 	 5356 	 1 
5356 	 5356 	 5357 	 1 
5357 	 5357 	 5358 	 1 
5358 	 5358 	 5359 	 1 
5359 	 5359 	 5360 	 1 
5360 	 5360 	 5361 	 1 
5361 	 5361 	 5362 	 1 
5362 	 5362 	 5363 	 1 
5363 	 5363 	 5364 	 1 
5364 	 5364 	 5365 	 1 
5365 	 5365 	 5366 	 1 
5366 	 5366 	 5367 	 1 
5367 	 5367 	 5368 	 1 
5368 	 5368 	 5369 	 1 
5369 	 5369 	 5370 	 1 
5370 	 5370 	 5371 	 1 
5371 	 5371 	 5372 	 1 
5372 	 5372 	 5373 	 1 
5373 	 5373 	 5374 	 1 
5374 	 5374 	 5375 	 1 
5375 	 5375 	 5376 	 1 
5376 	 5376 	 5377 	 1 
5377 	 5377 	 5378 	 1 
5378 	 5378 	 5379 	 1 
5379 	 5379 	 5380 	 1 
5380 	 5380 	 5381 	 1 
5381 	 5381 	 5382 	 1 
5382 	 5382 	 5383 	 1 
5383 	 5383 	 5384 	 1 
5384 	 5384 	 5385 	 1 
5385 	 5385 	 5386 	 1 
5386 	 5386 	 5387 	 1 
5387 	 5387 	 5388 	 1 
5388 	 5388 	 5389 	 1 
5389 	 5389 	 5390 	 1 
5390 	 5390 	 5391 	 1 
5391 	 5391 	 5392 	 1 
5392 	 5392 	 5393 	 1 
5393 	 5393 	 5394 	 1 
5394 	 5394 	 5395 	 1 
5395 	 5395 	 5396 	 1 
5396 	 5396 	 5397 	 1 
5397 	 5397 	 5398 	 1 
5398 	 5398 	 5399 	 1 
5399 	 5399 	 5400 	 1 
5400 	 5400 	 5401 	 1 
5401 	 5401 	 5402 	 1 
5402 	 5402 	 5403 	 1 
5403 	 5403 	 5404 	 1 
5404 	 5404 	 5405 	 1 
5405 	 5405 	 5406 	 1 
5406 	 5406 	 5407 	 1 
5407 	 5407 	 5408 	 1 
5408 	 5408 	 5409 	 1 
5409 	 5409 	 5410 	 1 
5410 	 5410 	 5411 	 1 
5411 	 5411 	 5412 	 1 
5412 	 5412 	 5413 	 1 
5413 	 5413 	 5414 	 1 
5414 	 5414 	 5415 	 1 
5415 	 5415 	 5416 	 1 
5416 	 5416 	 5417 	 1 
5417 	 5417 	 5418 	 1 
5418 	 5418 	 5419 	 1 
5419 	 5419 	 5420 	 1 
5420 	 5420 	 5421 	 1 
5421 	 5421 	 5422 	 1 
5422 	 5422 	 5423 	 1 
5423 	 5423 	 5424 	 1 
5424 	 5424 	 5425 	 1 
5425 	 5425 	 5426 	 1 
5426 	 5426 	 5427 	 1 
5427 	 5427 	 5428 	 1 
5428 	 5428 	 5429 	 1 
5429 	 5429 	 5430 	 1 
5430 	 5430 	 5431 	 1 
5431 	 5431 	 5432 	 1 
5432 	 5432 	 5433 	 1 
5433 	 5433 	 5434 	 1 
5434 	 5434 	 5435 	 1 
5435 	 5435 	 5436 	 1 
5436 	 5436 	 5437 	 1 
5437 	 5437 	 5438 	 1 
5438 	 5438 	 5439 	 1 
5439 	 5439 	 5440 	 1 
5440 	 5440 	 5441 	 1 
5441 	 5441 	 5442 	 1 
5442 	 5442 	 5443 	 1 
5443 	 5443 	 5444 	 1 
5444 	 5444 	 5445 	 1 
5445 	 5445 	 5446 	 1 
5446 	 5446 	 5447 	 1 
5447 	 5447 	 5448 	 1 
5448 	 5448 	 5449 	 1 
5449 	 5449 	 5450 	 1 
5450 	 5450 	 5451 	 1 
5451 	 5451 	 5452 	 1 
5452 	 5452 	 5453 	 1 
5453 	 5453 	 5454 	 1 
5454 	 5454 	 5455 	 1 
5455 	 5455 	 5456 	 1 
5456 	 5456 	 5457 	 1 
5457 	 5457 	 5458 	 1 
5458 	 5458 	 5459 	 1 
5459 	 5459 	 5460 	 1 
5460 	 5460 	 5461 	 1 
5461 	 5461 	 5462 	 1 
5462 	 5462 	 5463 	 1 
5463 	 5463 	 5464 	 1 
5464 	 5464 	 5465 	 1 
5465 	 5465 	 5466 	 1 
5466 	 5466 	 5467 	 1 
5467 	 5467 	 5468 	 1 
5468 	 5468 	 5469 	 1 
5469 	 5469 	 5470 	 1 
5470 	 5470 	 5471 	 1 
5471 	 5471 	 5472 	 1 
5472 	 5472 	 5473 	 1 
5473 	 5473 	 5474 	 1 
5474 	 5474 	 5475 	 1 
5475 	 5475 	 5476 	 1 
5476 	 5476 	 5477 	 1 
5477 	 5477 	 5478 	 1 
5478 	 5478 	 5479 	 1 
5479 	 5479 	 5480 	 1 
5480 	 5480 	 5481 	 1 
5481 	 5481 	 5482 	 1 
5482 	 5482 	 5483 	 1 
5483 	 5483 	 5484 	 1 
5484 	 5484 	 5485 	 1 
5485 	 5485 	 5486 	 1 
5486 	 5486 	 5487 	 1 
5487 	 5487 	 5488 	 1 
5488 	 5488 	 5489 	 1 
5489 	 5489 	 5490 	 1 
5490 	 5490 	 5491 	 1 
5491 	 5491 	 5492 	 1 
5492 	 5492 	 5493 	 1 
5493 	 5493 	 5494 	 1 
5494 	 5494 	 5495 	 1 
5495 	 5495 	 5496 	 1 
5496 	 5496 	 5497 	 1 
5497 	 5497 	 5498 	 1 
5498 	 5498 	 5499 	 1 
5499 	 5499 	 5500 	 1 
5500 	 5500 	 5501 	 1 
5501 	 5501 	 5502 	 1 
5502 	 5502 	 5503 	 1 
5503 	 5503 	 5504 	 1 
5504 	 5504 	 5505 	 1 
5505 	 5505 	 5506 	 1 
5506 	 5506 	 5507 	 1 
5507 	 5507 	 5508 	 1 
5508 	 5508 	 5509 	 1 
5509 	 5509 	 5510 	 1 
5510 	 5510 	 5511 	 1 
5511 	 5511 	 5512 	 1 
5512 	 5512 	 5513 	 1 
5513 	 5513 	 5514 	 1 
5514 	 5514 	 5515 	 1 
5515 	 5515 	 5516 	 1 
5516 	 5516 	 5517 	 1 
5517 	 5517 	 5518 	 1 
5518 	 5518 	 5519 	 1 
5519 	 5519 	 5520 	 1 
5520 	 5520 	 5521 	 1 
5521 	 5521 	 5522 	 1 
5522 	 5522 	 5523 	 1 
5523 	 5523 	 5524 	 1 
5524 	 5524 	 5525 	 1 
5525 	 5525 	 5526 	 1 
5526 	 5526 	 5527 	 1 
5527 	 5527 	 5528 	 1 
5528 	 5528 	 5529 	 1 
5529 	 5529 	 5530 	 1 
5530 	 5530 	 5531 	 1 
5531 	 5531 	 5532 	 1 
5532 	 5532 	 5533 	 1 
5533 	 5533 	 5534 	 1 
5534 	 5534 	 5535 	 1 
5535 	 5535 	 5536 	 1 
5536 	 5536 	 5537 	 1 
5537 	 5537 	 5538 	 1 
5538 	 5538 	 5539 	 1 
5539 	 5539 	 5540 	 1 
5540 	 5540 	 5541 	 1 
5541 	 5541 	 5542 	 1 
5542 	 5542 	 5543 	 1 
5543 	 5543 	 5544 	 1 
5544 	 5544 	 5545 	 1 
5545 	 5545 	 5546 	 1 
5546 	 5546 	 5547 	 1 
5547 	 5547 	 5548 	 1 
5548 	 5548 	 5549 	 1 
5549 	 5549 	 5550 	 1 
5550 	 5550 	 5551 	 1 
5551 	 5551 	 5552 	 1 
5552 	 5552 	 5553 	 1 
5553 	 5553 	 5554 	 1 
5554 	 5554 	 5555 	 1 
5555 	 5555 	 5556 	 1 
5556 	 5556 	 5557 	 1 
5557 	 5557 	 5558 	 1 
5558 	 5558 	 5559 	 1 
5559 	 5559 	 5560 	 1 
5560 	 5560 	 5561 	 1 
5561 	 5561 	 5562 	 1 
5562 	 5562 	 5563 	 1 
5563 	 5563 	 5564 	 1 
5564 	 5564 	 5565 	 1 
5565 	 5565 	 5566 	 1 
5566 	 5566 	 5567 	 1 
5567 	 5567 	 5568 	 1 
5568 	 5568 	 5569 	 1 
5569 	 5569 	 5570 	 1 
5570 	 5570 	 5571 	 1 
5571 	 5571 	 5572 	 1 
5572 	 5572 	 5573 	 1 
5573 	 5573 	 5574 	 1 
5574 	 5574 	 5575 	 1 
5575 	 5575 	 5576 	 1 
5576 	 5576 	 5577 	 1 
5577 	 5577 	 5578 	 1 
5578 	 5578 	 5579 	 1 
5579 	 5579 	 5580 	 1 
5580 	 5580 	 5581 	 1 
5581 	 5581 	 5582 	 1 
5582 	 5582 	 5583 	 1 
5583 	 5583 	 5584 	 1 
5584 	 5584 	 5585 	 1 
5585 	 5585 	 5586 	 1 
5586 	 5586 	 5587 	 1 
5587 	 5587 	 5588 	 1 
5588 	 5588 	 5589 	 1 
5589 	 5589 	 5590 	 1 
5590 	 5590 	 5591 	 1 
5591 	 5591 	 5592 	 1 
5592 	 5592 	 5593 	 1 
5593 	 5593 	 5594 	 1 
5594 	 5594 	 5595 	 1 
5595 	 5595 	 5596 	 1 
5596 	 5596 	 5597 	 1 
5597 	 5597 	 5598 	 1 
5598 	 5598 	 5599 	 1 
5599 	 5599 	 5600 	 1 
5600 	 5600 	 5601 	 1 
5601 	 5601 	 5602 	 1 
5602 	 5602 	 5603 	 1 
5603 	 5603 	 5604 	 1 
5604 	 5604 	 5605 	 1 
5605 	 5605 	 5606 	 1 
5606 	 5606 	 5607 	 1 
5607 	 5607 	 5608 	 1 
5608 	 5608 	 5609 	 1 
5609 	 5609 	 5610 	 1 
5610 	 5610 	 5611 	 1 
5611 	 5611 	 5612 	 1 
5612 	 5612 	 5613 	 1 
5613 	 5613 	 5614 	 1 
5614 	 5614 	 5615 	 1 
5615 	 5615 	 5616 	 1 
5616 	 5616 	 5617 	 1 
5617 	 5617 	 5618 	 1 
5618 	 5618 	 5619 	 1 
5619 	 5619 	 5620 	 1 
5620 	 5620 	 5621 	 1 
5621 	 5621 	 5622 	 1 
5622 	 5622 	 5623 	 1 
5623 	 5623 	 5624 	 1 
5624 	 5624 	 5625 	 1 
5625 	 5625 	 5626 	 1 
5626 	 5626 	 5627 	 1 
5627 	 5627 	 5628 	 1 
5628 	 5628 	 5629 	 1 
5629 	 5629 	 5630 	 1 
5630 	 5630 	 5631 	 1 
5631 	 5631 	 5632 	 1 
5632 	 5632 	 5633 	 1 
5633 	 5633 	 5634 	 1 
5634 	 5634 	 5635 	 1 
5635 	 5635 	 5636 	 1 
5636 	 5636 	 5637 	 1 
5637 	 5637 	 5638 	 1 
5638 	 5638 	 5639 	 1 
5639 	 5639 	 5640 	 1 
5640 	 5640 	 5641 	 1 
5641 	 5641 	 5642 	 1 
5642 	 5642 	 5643 	 1 
5643 	 5643 	 5644 	 1 
5644 	 5644 	 5645 	 1 
5645 	 5645 	 5646 	 1 
5646 	 5646 	 5647 	 1 
5647 	 5647 	 5648 	 1 
5648 	 5648 	 5649 	 1 
5649 	 5649 	 5650 	 1 
5650 	 5650 	 5651 	 1 
5651 	 5651 	 5652 	 1 
5652 	 5652 	 5653 	 1 
5653 	 5653 	 5654 	 1 
5654 	 5654 	 5655 	 1 
5655 	 5655 	 5656 	 1 
5656 	 5656 	 5657 	 1 
5657 	 5657 	 5658 	 1 
5658 	 5658 	 5659 	 1 
5659 	 5659 	 5660 	 1 
5660 	 5660 	 5661 	 1 
5661 	 5661 	 5662 	 1 
5662 	 5662 	 5663 	 1 
5663 	 5663 	 5664 	 1 
5664 	 5664 	 5665 	 1 
5665 	 5665 	 5666 	 1 
5666 	 5666 	 5667 	 1 
5667 	 5667 	 5668 	 1 
5668 	 5668 	 5669 	 1 
5669 	 5669 	 5670 	 1 
5670 	 5670 	 5671 	 1 
5671 	 5671 	 5672 	 1 
5672 	 5672 	 5673 	 1 
5673 	 5673 	 5674 	 1 
5674 	 5674 	 5675 	 1 
5675 	 5675 	 5676 	 1 
5676 	 5676 	 5677 	 1 
5677 	 5677 	 5678 	 1 
5678 	 5678 	 5679 	 1 
5679 	 5679 	 5680 	 1 
5680 	 5680 	 5681 	 1 
5681 	 5681 	 5682 	 1 
5682 	 5682 	 5683 	 1 
5683 	 5683 	 5684 	 1 
5684 	 5684 	 5685 	 1 
5685 	 5685 	 5686 	 1 
5686 	 5686 	 5687 	 1 
5687 	 5687 	 5688 	 1 
5688 	 5688 	 5689 	 1 
5689 	 5689 	 5690 	 1 
5690 	 5690 	 5691 	 1 
5691 	 5691 	 5692 	 1 
5692 	 5692 	 5693 	 1 
5693 	 5693 	 5694 	 1 
5694 	 5694 	 5695 	 1 
5695 	 5695 	 5696 	 1 
5696 	 5696 	 5697 	 1 
5697 	 5697 	 5698 	 1 
5698 	 5698 	 5699 	 1 
5699 	 5699 	 5700 	 1 
5700 	 5700 	 5701 	 1 
5701 	 5701 	 5702 	 1 
5702 	 5702 	 5703 	 1 
5703 	 5703 	 5704 	 1 
5704 	 5704 	 5705 	 1 
5705 	 5705 	 5706 	 1 
5706 	 5706 	 5707 	 1 
5707 	 5707 	 5708 	 1 
5708 	 5708 	 5709 	 1 
5709 	 5709 	 5710 	 1 
5710 	 5710 	 5711 	 1 
5711 	 5711 	 5712 	 1 
5712 	 5712 	 5713 	 1 
5713 	 5713 	 5714 	 1 
5714 	 5714 	 5715 	 1 
5715 	 5715 	 5716 	 1 
5716 	 5716 	 5717 	 1 
5717 	 5717 	 5718 	 1 
5718 	 5718 	 5719 	 1 
5719 	 5719 	 5720 	 1 
5720 	 5720 	 5721 	 1 
5721 	 5721 	 5722 	 1 
5722 	 5722 	 5723 	 1 
5723 	 5723 	 5724 	 1 
5724 	 5724 	 5725 	 1 
5725 	 5725 	 5726 	 1 
5726 	 5726 	 5727 	 1 
5727 	 5727 	 5728 	 1 
5728 	 5728 	 5729 	 1 
5729 	 5729 	 5730 	 1 
5730 	 5730 	 5731 	 1 
5731 	 5731 	 5732 	 1 
5732 	 5732 	 5733 	 1 
5733 	 5733 	 5734 	 1 
5734 	 5734 	 5735 	 1 
5735 	 5735 	 5736 	 1 
5736 	 5736 	 5737 	 1 
5737 	 5737 	 5738 	 1 
5738 	 5738 	 5739 	 1 
5739 	 5739 	 5740 	 1 
5740 	 5740 	 5741 	 1 
5741 	 5741 	 5742 	 1 
5742 	 5742 	 5743 	 1 
5743 	 5743 	 5744 	 1 
5744 	 5744 	 5745 	 1 
5745 	 5745 	 5746 	 1 
5746 	 5746 	 5747 	 1 
5747 	 5747 	 5748 	 1 
5748 	 5748 	 5749 	 1 
5749 	 5749 	 5750 	 1 
5750 	 5750 	 5751 	 1 
5751 	 5751 	 5752 	 1 
5752 	 5752 	 5753 	 1 
5753 	 5753 	 5754 	 1 
5754 	 5754 	 5755 	 1 
5755 	 5755 	 5756 	 1 
5756 	 5756 	 5757 	 1 
5757 	 5757 	 5758 	 1 
5758 	 5758 	 5759 	 1 
5759 	 5759 	 5760 	 1 
5760 	 5760 	 5761 	 1 
5761 	 5761 	 5762 	 1 
5762 	 5762 	 5763 	 1 
5763 	 5763 	 5764 	 1 
5764 	 5764 	 5765 	 1 
5765 	 5765 	 5766 	 1 
5766 	 5766 	 5767 	 1 
5767 	 5767 	 5768 	 1 
5768 	 5768 	 5769 	 1 
5769 	 5769 	 5770 	 1 
5770 	 5770 	 5771 	 1 
5771 	 5771 	 5772 	 1 
5772 	 5772 	 5773 	 1 
5773 	 5773 	 5774 	 1 
5774 	 5774 	 5775 	 1 
5775 	 5775 	 5776 	 1 
5776 	 5776 	 5777 	 1 
5777 	 5777 	 5778 	 1 
5778 	 5778 	 5779 	 1 
5779 	 5779 	 5780 	 1 
5780 	 5780 	 5781 	 1 
5781 	 5781 	 5782 	 1 
5782 	 5782 	 5783 	 1 
5783 	 5783 	 5784 	 1 
5784 	 5784 	 5785 	 1 
5785 	 5785 	 5786 	 1 
5786 	 5786 	 5787 	 1 
5787 	 5787 	 5788 	 1 
5788 	 5788 	 5789 	 1 
5789 	 5789 	 5790 	 1 
5790 	 5790 	 5791 	 1 
5791 	 5791 	 5792 	 1 
5792 	 5792 	 5793 	 1 
5793 	 5793 	 5794 	 1 
5794 	 5794 	 5795 	 1 
5795 	 5795 	 5796 	 1 
5796 	 5796 	 5797 	 1 
5797 	 5797 	 5798 	 1 
5798 	 5798 	 5799 	 1 
5799 	 5799 	 5800 	 1 
5800 	 5800 	 5801 	 1 
5801 	 5801 	 5802 	 1 
5802 	 5802 	 5803 	 1 
5803 	 5803 	 5804 	 1 
5804 	 5804 	 5805 	 1 
5805 	 5805 	 5806 	 1 
5806 	 5806 	 5807 	 1 
5807 	 5807 	 5808 	 1 
5808 	 5808 	 5809 	 1 
5809 	 5809 	 5810 	 1 
5810 	 5810 	 5811 	 1 
5811 	 5811 	 5812 	 1 
5812 	 5812 	 5813 	 1 
5813 	 5813 	 5814 	 1 
5814 	 5814 	 5815 	 1 
5815 	 5815 	 5816 	 1 
5816 	 5816 	 5817 	 1 
5817 	 5817 	 5818 	 1 
5818 	 5818 	 5819 	 1 
5819 	 5819 	 5820 	 1 
5820 	 5820 	 5821 	 1 
5821 	 5821 	 5822 	 1 
5822 	 5822 	 5823 	 1 
5823 	 5823 	 5824 	 1 
5824 	 5824 	 5825 	 1 
5825 	 5825 	 5826 	 1 
5826 	 5826 	 5827 	 1 
5827 	 5827 	 5828 	 1 
5828 	 5828 	 5829 	 1 
5829 	 5829 	 5830 	 1 
5830 	 5830 	 5831 	 1 
5831 	 5831 	 5832 	 1 
5832 	 5832 	 5833 	 1 
5833 	 5833 	 5834 	 1 
5834 	 5834 	 5835 	 1 
5835 	 5835 	 5836 	 1 
5836 	 5836 	 5837 	 1 
5837 	 5837 	 5838 	 1 
5838 	 5838 	 5839 	 1 
5839 	 5839 	 5840 	 1 
5840 	 5840 	 5841 	 1 
5841 	 5841 	 5842 	 1 
5842 	 5842 	 5843 	 1 
5843 	 5843 	 5844 	 1 
5844 	 5844 	 5845 	 1 
5845 	 5845 	 5846 	 1 
5846 	 5846 	 5847 	 1 
5847 	 5847 	 5848 	 1 
5848 	 5848 	 5849 	 1 
5849 	 5849 	 5850 	 1 
5850 	 5850 	 5851 	 1 
5851 	 5851 	 5852 	 1 
5852 	 5852 	 5853 	 1 
5853 	 5853 	 5854 	 1 
5854 	 5854 	 5855 	 1 
5855 	 5855 	 5856 	 1 
5856 	 5856 	 5857 	 1 
5857 	 5857 	 5858 	 1 
5858 	 5858 	 5859 	 1 
5859 	 5859 	 5860 	 1 
5860 	 5860 	 5861 	 1 
5861 	 5861 	 5862 	 1 
5862 	 5862 	 5863 	 1 
5863 	 5863 	 5864 	 1 
5864 	 5864 	 5865 	 1 
5865 	 5865 	 5866 	 1 
5866 	 5866 	 5867 	 1 
5867 	 5867 	 5868 	 1 
5868 	 5868 	 5869 	 1 
5869 	 5869 	 5870 	 1 
5870 	 5870 	 5871 	 1 
5871 	 5871 	 5872 	 1 
5872 	 5872 	 5873 	 1 
5873 	 5873 	 5874 	 1 
5874 	 5874 	 5875 	 1 
5875 	 5875 	 5876 	 1 
5876 	 5876 	 5877 	 1 
5877 	 5877 	 5878 	 1 
5878 	 5878 	 5879 	 1 
5879 	 5879 	 5880 	 1 
5880 	 5880 	 5881 	 1 
5881 	 5881 	 5882 	 1 
5882 	 5882 	 5883 	 1 
5883 	 5883 	 5884 	 1 
5884 	 5884 	 5885 	 1 
5885 	 5885 	 5886 	 1 
5886 	 5886 	 5887 	 1 
5887 	 5887 	 5888 	 1 
5888 	 5888 	 5889 	 1 
5889 	 5889 	 5890 	 1 
5890 	 5890 	 5891 	 1 
5891 	 5891 	 5892 	 1 
5892 	 5892 	 5893 	 1 
5893 	 5893 	 5894 	 1 
5894 	 5894 	 5895 	 1 
5895 	 5895 	 5896 	 1 
5896 	 5896 	 5897 	 1 
5897 	 5897 	 5898 	 1 
5898 	 5898 	 5899 	 1 
5899 	 5899 	 5900 	 1 
5900 	 5900 	 5901 	 1 
5901 	 5901 	 5902 	 1 
5902 	 5902 	 5903 	 1 
5903 	 5903 	 5904 	 1 
5904 	 5904 	 5905 	 1 
5905 	 5905 	 5906 	 1 
5906 	 5906 	 5907 	 1 
5907 	 5907 	 5908 	 1 
5908 	 5908 	 5909 	 1 
5909 	 5909 	 5910 	 1 
5910 	 5910 	 5911 	 1 
5911 	 5911 	 5912 	 1 
5912 	 5912 	 5913 	 1 
5913 	 5913 	 5914 	 1 
5914 	 5914 	 5915 	 1 
5915 	 5915 	 5916 	 1 
5916 	 5916 	 5917 	 1 
5917 	 5917 	 5918 	 1 
5918 	 5918 	 5919 	 1 
5919 	 5919 	 5920 	 1 
5920 	 5920 	 5921 	 1 
5921 	 5921 	 5922 	 1 
5922 	 5922 	 5923 	 1 
5923 	 5923 	 5924 	 1 
5924 	 5924 	 5925 	 1 
5925 	 5925 	 5926 	 1 
5926 	 5926 	 5927 	 1 
5927 	 5927 	 5928 	 1 
5928 	 5928 	 5929 	 1 
5929 	 5929 	 5930 	 1 
5930 	 5930 	 5931 	 1 
5931 	 5931 	 5932 	 1 
5932 	 5932 	 5933 	 1 
5933 	 5933 	 5934 	 1 
5934 	 5934 	 5935 	 1 
5935 	 5935 	 5936 	 1 
5936 	 5936 	 5937 	 1 
5937 	 5937 	 5938 	 1 
5938 	 5938 	 5939 	 1 
5939 	 5939 	 5940 	 1 
5940 	 5940 	 5941 	 1 
5941 	 5941 	 5942 	 1 
5942 	 5942 	 5943 	 1 
5943 	 5943 	 5944 	 1 
5944 	 5944 	 5945 	 1 
5945 	 5945 	 5946 	 1 
5946 	 5946 	 5947 	 1 
5947 	 5947 	 5948 	 1 
5948 	 5948 	 5949 	 1 
5949 	 5949 	 5950 	 1 
5950 	 5950 	 5951 	 1 
5951 	 5951 	 5952 	 1 
5952 	 5952 	 5953 	 1 
5953 	 5953 	 5954 	 1 
5954 	 5954 	 5955 	 1 
5955 	 5955 	 5956 	 1 
5956 	 5956 	 5957 	 1 
5957 	 5957 	 5958 	 1 
5958 	 5958 	 5959 	 1 
5959 	 5959 	 5960 	 1 
5960 	 5960 	 5961 	 1 
5961 	 5961 	 5962 	 1 
5962 	 5962 	 5963 	 1 
5963 	 5963 	 5964 	 1 
5964 	 5964 	 5965 	 1 
5965 	 5965 	 5966 	 1 
5966 	 5966 	 5967 	 1 
5967 	 5967 	 5968 	 1 
5968 	 5968 	 5969 	 1 
5969 	 5969 	 5970 	 1 
5970 	 5970 	 5971 	 1 
5971 	 5971 	 5972 	 1 
5972 	 5972 	 5973 	 1 
5973 	 5973 	 5974 	 1 
5974 	 5974 	 5975 	 1 
5975 	 5975 	 5976 	 1 
5976 	 5976 	 5977 	 1 
5977 	 5977 	 5978 	 1 
5978 	 5978 	 5979 	 1 
5979 	 5979 	 5980 	 1 
5980 	 5980 	 5981 	 1 
5981 	 5981 	 5982 	 1 
5982 	 5982 	 5983 	 1 
5983 	 5983 	 5984 	 1 
5984 	 5984 	 5985 	 1 
5985 	 5985 	 5986 	 1 
5986 	 5986 	 5987 	 1 
5987 	 5987 	 5988 	 1 
5988 	 5988 	 5989 	 1 
5989 	 5989 	 5990 	 1 
5990 	 5990 	 5991 	 1 
5991 	 5991 	 5992 	 1 
5992 	 5992 	 5993 	 1 
5993 	 5993 	 5994 	 1 
5994 	 5994 	 5995 	 1 
5995 	 5995 	 5996 	 1 
5996 	 5996 	 5997 	 1 
5997 	 5997 	 5998 	 1 
5998 	 5998 	 5999 	 1 
5999 	 5999 	 6000 	 1 
6000 	 6000 	 6001 	 1 
6001 	 6001 	 6002 	 1 
6002 	 6002 	 6003 	 1 
6003 	 6003 	 6004 	 1 
6004 	 6004 	 6005 	 1 
6005 	 6005 	 6006 	 1 
6006 	 6006 	 6007 	 1 
6007 	 6007 	 6008 	 1 
6008 	 6008 	 6009 	 1 
6009 	 6009 	 6010 	 1 
6010 	 6010 	 6011 	 1 
6011 	 6011 	 6012 	 1 
6012 	 6012 	 6013 	 1 
6013 	 6013 	 6014 	 1 
6014 	 6014 	 6015 	 1 
6015 	 6015 	 6016 	 1 
6016 	 6016 	 6017 	 1 
6017 	 6017 	 6018 	 1 
6018 	 6018 	 6019 	 1 
6019 	 6019 	 6020 	 1 
6020 	 6020 	 6021 	 1 
6021 	 6021 	 6022 	 1 
6022 	 6022 	 6023 	 1 
6023 	 6023 	 6024 	 1 
6024 	 6024 	 6025 	 1 
6025 	 6025 	 6026 	 1 
6026 	 6026 	 6027 	 1 
6027 	 6027 	 6028 	 1 
6028 	 6028 	 6029 	 1 
6029 	 6029 	 6030 	 1 
6030 	 6030 	 6031 	 1 
6031 	 6031 	 6032 	 1 
6032 	 6032 	 6033 	 1 
6033 	 6033 	 6034 	 1 
6034 	 6034 	 6035 	 1 
6035 	 6035 	 6036 	 1 
6036 	 6036 	 6037 	 1 
6037 	 6037 	 6038 	 1 
6038 	 6038 	 6039 	 1 
6039 	 6039 	 6040 	 1 
6040 	 6040 	 6041 	 1 
6041 	 6041 	 6042 	 1 
6042 	 6042 	 6043 	 1 
6043 	 6043 	 6044 	 1 
6044 	 6044 	 6045 	 1 
6045 	 6045 	 6046 	 1 
6046 	 6046 	 6047 	 1 
6047 	 6047 	 6048 	 1 
6048 	 6048 	 6049 	 1 
6049 	 6049 	 6050 	 1 
6050 	 6050 	 6051 	 1 
6051 	 6051 	 6052 	 1 
6052 	 6052 	 6053 	 1 
6053 	 6053 	 6054 	 1 
6054 	 6054 	 6055 	 1 
6055 	 6055 	 6056 	 1 
6056 	 6056 	 6057 	 1 
6057 	 6057 	 6058 	 1 
6058 	 6058 	 6059 	 1 
6059 	 6059 	 6060 	 1 
6060 	 6060 	 6061 	 1 
6061 	 6061 	 6062 	 1 
6062 	 6062 	 6063 	 1 
6063 	 6063 	 6064 	 1 
6064 	 6064 	 6065 	 1 
6065 	 6065 	 6066 	 1 
6066 	 6066 	 6067 	 1 
6067 	 6067 	 6068 	 1 
6068 	 6068 	 6069 	 1 
6069 	 6069 	 6070 	 1 
6070 	 6070 	 6071 	 1 
6071 	 6071 	 6072 	 1 
6072 	 6072 	 6073 	 1 
6073 	 6073 	 6074 	 1 
6074 	 6074 	 6075 	 1 
6075 	 6075 	 6076 	 1 
6076 	 6076 	 6077 	 1 
6077 	 6077 	 6078 	 1 
6078 	 6078 	 6079 	 1 
6079 	 6079 	 6080 	 1 
6080 	 6080 	 6081 	 1 
6081 	 6081 	 6082 	 1 
6082 	 6082 	 6083 	 1 
6083 	 6083 	 6084 	 1 
6084 	 6084 	 6085 	 1 
6085 	 6085 	 6086 	 1 
6086 	 6086 	 6087 	 1 
6087 	 6087 	 6088 	 1 
6088 	 6088 	 6089 	 1 
6089 	 6089 	 6090 	 1 
6090 	 6090 	 6091 	 1 
6091 	 6091 	 6092 	 1 
6092 	 6092 	 6093 	 1 
6093 	 6093 	 6094 	 1 
6094 	 6094 	 6095 	 1 
6095 	 6095 	 6096 	 1 
6096 	 6096 	 6097 	 1 
6097 	 6097 	 6098 	 1 
6098 	 6098 	 6099 	 1 
6099 	 6099 	 6100 	 1 
6100 	 6100 	 6101 	 1 
6101 	 6101 	 6102 	 1 
6102 	 6102 	 6103 	 1 
6103 	 6103 	 6104 	 1 
6104 	 6104 	 6105 	 1 
6105 	 6105 	 6106 	 1 
6106 	 6106 	 6107 	 1 
6107 	 6107 	 6108 	 1 
6108 	 6108 	 6109 	 1 
6109 	 6109 	 6110 	 1 
6110 	 6110 	 6111 	 1 
6111 	 6111 	 6112 	 1 
6112 	 6112 	 6113 	 1 
6113 	 6113 	 6114 	 1 
6114 	 6114 	 6115 	 1 
6115 	 6115 	 6116 	 1 
6116 	 6116 	 6117 	 1 
6117 	 6117 	 6118 	 1 
6118 	 6118 	 6119 	 1 
6119 	 6119 	 6120 	 1 
6120 	 6120 	 6121 	 1 
6121 	 6121 	 6122 	 1 
6122 	 6122 	 6123 	 1 
6123 	 6123 	 6124 	 1 
6124 	 6124 	 6125 	 1 
6125 	 6125 	 6126 	 1 
6126 	 6126 	 6127 	 1 
6127 	 6127 	 6128 	 1 
6128 	 6128 	 6129 	 1 
6129 	 6129 	 6130 	 1 
6130 	 6130 	 6131 	 1 
6131 	 6131 	 6132 	 1 
6132 	 6132 	 6133 	 1 
6133 	 6133 	 6134 	 1 
6134 	 6134 	 6135 	 1 
6135 	 6135 	 6136 	 1 
6136 	 6136 	 6137 	 1 
6137 	 6137 	 6138 	 1 
6138 	 6138 	 6139 	 1 
6139 	 6139 	 6140 	 1 
6140 	 6140 	 6141 	 1 
6141 	 6141 	 6142 	 1 
6142 	 6142 	 6143 	 1 
6143 	 6143 	 6144 	 1 
6144 	 6144 	 6145 	 1 
6145 	 6145 	 6146 	 1 
6146 	 6146 	 6147 	 1 
6147 	 6147 	 6148 	 1 
6148 	 6148 	 6149 	 1 
6149 	 6149 	 6150 	 1 
6150 	 6150 	 6151 	 1 
6151 	 6151 	 6152 	 1 
6152 	 6152 	 6153 	 1 
6153 	 6153 	 6154 	 1 
6154 	 6154 	 6155 	 1 
6155 	 6155 	 6156 	 1 
6156 	 6156 	 6157 	 1 
6157 	 6157 	 6158 	 1 
6158 	 6158 	 6159 	 1 
6159 	 6159 	 6160 	 1 
6160 	 6160 	 6161 	 1 
6161 	 6161 	 6162 	 1 
6162 	 6162 	 6163 	 1 
6163 	 6163 	 6164 	 1 
6164 	 6164 	 6165 	 1 
6165 	 6165 	 6166 	 1 
6166 	 6166 	 6167 	 1 
6167 	 6167 	 6168 	 1 
6168 	 6168 	 6169 	 1 
6169 	 6169 	 6170 	 1 
6170 	 6170 	 6171 	 1 
6171 	 6171 	 6172 	 1 
6172 	 6172 	 6173 	 1 
6173 	 6173 	 6174 	 1 
6174 	 6174 	 6175 	 1 
6175 	 6175 	 6176 	 1 
6176 	 6176 	 6177 	 1 
6177 	 6177 	 6178 	 1 
6178 	 6178 	 6179 	 1 
6179 	 6179 	 6180 	 1 
6180 	 6180 	 6181 	 1 
6181 	 6181 	 6182 	 1 
6182 	 6182 	 6183 	 1 
6183 	 6183 	 6184 	 1 
6184 	 6184 	 6185 	 1 
6185 	 6185 	 6186 	 1 
6186 	 6186 	 6187 	 1 
6187 	 6187 	 6188 	 1 
6188 	 6188 	 6189 	 1 
6189 	 6189 	 6190 	 1 
6190 	 6190 	 6191 	 1 
6191 	 6191 	 6192 	 1 
6192 	 6192 	 6193 	 1 
6193 	 6193 	 6194 	 1 
6194 	 6194 	 6195 	 1 
6195 	 6195 	 6196 	 1 
6196 	 6196 	 6197 	 1 
6197 	 6197 	 6198 	 1 
6198 	 6198 	 6199 	 1 
6199 	 6199 	 6200 	 1 
6200 	 6200 	 6201 	 1 
6201 	 6201 	 6202 	 1 
6202 	 6202 	 6203 	 1 
6203 	 6203 	 6204 	 1 
6204 	 6204 	 6205 	 1 
6205 	 6205 	 6206 	 1 
6206 	 6206 	 6207 	 1 
6207 	 6207 	 6208 	 1 
6208 	 6208 	 6209 	 1 
6209 	 6209 	 6210 	 1 
6210 	 6210 	 6211 	 1 
6211 	 6211 	 6212 	 1 
6212 	 6212 	 6213 	 1 
6213 	 6213 	 6214 	 1 
6214 	 6214 	 6215 	 1 
6215 	 6215 	 6216 	 1 
6216 	 6216 	 6217 	 1 
6217 	 6217 	 6218 	 1 
6218 	 6218 	 6219 	 1 
6219 	 6219 	 6220 	 1 
6220 	 6220 	 6221 	 1 
6221 	 6221 	 6222 	 1 
6222 	 6222 	 6223 	 1 
6223 	 6223 	 6224 	 1 
6224 	 6224 	 6225 	 1 
6225 	 6225 	 6226 	 1 
6226 	 6226 	 6227 	 1 
6227 	 6227 	 6228 	 1 
6228 	 6228 	 6229 	 1 
6229 	 6229 	 6230 	 1 
6230 	 6230 	 6231 	 1 
6231 	 6231 	 6232 	 1 
6232 	 6232 	 6233 	 1 
6233 	 6233 	 6234 	 1 
6234 	 6234 	 6235 	 1 
6235 	 6235 	 6236 	 1 
6236 	 6236 	 6237 	 1 
6237 	 6237 	 6238 	 1 
6238 	 6238 	 6239 	 1 
6239 	 6239 	 6240 	 1 
6240 	 6240 	 6241 	 1 
6241 	 6241 	 6242 	 1 
6242 	 6242 	 6243 	 1 
6243 	 6243 	 6244 	 1 
6244 	 6244 	 6245 	 1 
6245 	 6245 	 6246 	 1 
6246 	 6246 	 6247 	 1 
6247 	 6247 	 6248 	 1 
6248 	 6248 	 6249 	 1 
6249 	 6249 	 6250 	 1 
6250 	 6250 	 6251 	 1 
6251 	 6251 	 6252 	 1 
6252 	 6252 	 6253 	 1 
6253 	 6253 	 6254 	 1 
6254 	 6254 	 6255 	 1 
6255 	 6255 	 6256 	 1 
6256 	 6256 	 6257 	 1 
6257 	 6257 	 6258 	 1 
6258 	 6258 	 6259 	 1 
6259 	 6259 	 6260 	 1 
6260 	 6260 	 6261 	 1 
6261 	 6261 	 6262 	 1 
6262 	 6262 	 6263 	 1 
6263 	 6263 	 6264 	 1 
6264 	 6264 	 6265 	 1 
6265 	 6265 	 6266 	 1 
6266 	 6266 	 6267 	 1 
6267 	 6267 	 6268 	 1 
6268 	 6268 	 6269 	 1 
6269 	 6269 	 6270 	 1 
6270 	 6270 	 6271 	 1 
6271 	 6271 	 6272 	 1 
6272 	 6272 	 6273 	 1 
6273 	 6273 	 6274 	 1 
6274 	 6274 	 6275 	 1 
6275 	 6275 	 6276 	 1 
6276 	 6276 	 6277 	 1 
6277 	 6277 	 6278 	 1 
6278 	 6278 	 6279 	 1 
6279 	 6279 	 6280 	 1 
6280 	 6280 	 6281 	 1 
6281 	 6281 	 6282 	 1 
6282 	 6282 	 6283 	 1 
6283 	 6283 	 6284 	 1 
6284 	 6284 	 6285 	 1 
6285 	 6285 	 6286 	 1 
6286 	 6286 	 6287 	 1 
6287 	 6287 	 6288 	 1 
6288 	 6288 	 6289 	 1 
6289 	 6289 	 6290 	 1 
6290 	 6290 	 6291 	 1 
6291 	 6291 	 6292 	 1 
6292 	 6292 	 6293 	 1 
6293 	 6293 	 6294 	 1 
6294 	 6294 	 6295 	 1 
6295 	 6295 	 6296 	 1 
6296 	 6296 	 6297 	 1 
6297 	 6297 	 6298 	 1 
6298 	 6298 	 6299 	 1 
6299 	 6299 	 6300 	 1 
6300 	 6300 	 6301 	 1 
6301 	 6301 	 6302 	 1 
6302 	 6302 	 6303 	 1 
6303 	 6303 	 6304 	 1 
6304 	 6304 	 6305 	 1 
6305 	 6305 	 6306 	 1 
6306 	 6306 	 6307 	 1 
6307 	 6307 	 6308 	 1 
6308 	 6308 	 6309 	 1 
6309 	 6309 	 6310 	 1 
6310 	 6310 	 6311 	 1 
6311 	 6311 	 6312 	 1 
6312 	 6312 	 6313 	 1 
6313 	 6313 	 6314 	 1 
6314 	 6314 	 6315 	 1 
6315 	 6315 	 6316 	 1 
6316 	 6316 	 6317 	 1 
6317 	 6317 	 6318 	 1 
6318 	 6318 	 6319 	 1 
6319 	 6319 	 6320 	 1 
6320 	 6320 	 6321 	 1 
6321 	 6321 	 6322 	 1 
6322 	 6322 	 6323 	 1 
6323 	 6323 	 6324 	 1 
6324 	 6324 	 6325 	 1 
6325 	 6325 	 6326 	 1 
6326 	 6326 	 6327 	 1 
6327 	 6327 	 6328 	 1 
6328 	 6328 	 6329 	 1 
6329 	 6329 	 6330 	 1 
6330 	 6330 	 6331 	 1 
6331 	 6331 	 6332 	 1 
6332 	 6332 	 6333 	 1 
6333 	 6333 	 6334 	 1 
6334 	 6334 	 6335 	 1 
6335 	 6335 	 6336 	 1 
6336 	 6336 	 6337 	 1 
6337 	 6337 	 6338 	 1 
6338 	 6338 	 6339 	 1 
6339 	 6339 	 6340 	 1 
6340 	 6340 	 6341 	 1 
6341 	 6341 	 6342 	 1 
6342 	 6342 	 6343 	 1 
6343 	 6343 	 6344 	 1 
6344 	 6344 	 6345 	 1 
6345 	 6345 	 6346 	 1 
6346 	 6346 	 6347 	 1 
6347 	 6347 	 6348 	 1 
6348 	 6348 	 6349 	 1 
6349 	 6349 	 6350 	 1 
6350 	 6350 	 6351 	 1 
6351 	 6351 	 6352 	 1 
6352 	 6352 	 6353 	 1 
6353 	 6353 	 6354 	 1 
6354 	 6354 	 6355 	 1 
6355 	 6355 	 6356 	 1 
6356 	 6356 	 6357 	 1 
6357 	 6357 	 6358 	 1 
6358 	 6358 	 6359 	 1 
6359 	 6359 	 6360 	 1 
6360 	 6360 	 6361 	 1 
6361 	 6361 	 6362 	 1 
6362 	 6362 	 6363 	 1 
6363 	 6363 	 6364 	 1 
6364 	 6364 	 6365 	 1 
6365 	 6365 	 6366 	 1 
6366 	 6366 	 6367 	 1 
6367 	 6367 	 6368 	 1 
6368 	 6368 	 6369 	 1 
6369 	 6369 	 6370 	 1 
6370 	 6370 	 6371 	 1 
6371 	 6371 	 6372 	 1 
6372 	 6372 	 6373 	 1 
6373 	 6373 	 6374 	 1 
6374 	 6374 	 6375 	 1 
6375 	 6375 	 6376 	 1 
6376 	 6376 	 6377 	 1 
6377 	 6377 	 6378 	 1 
6378 	 6378 	 6379 	 1 
6379 	 6379 	 6380 	 1 
6380 	 6380 	 6381 	 1 
6381 	 6381 	 6382 	 1 
6382 	 6382 	 6383 	 1 
6383 	 6383 	 6384 	 1 
6384 	 6384 	 6385 	 1 
6385 	 6385 	 6386 	 1 
6386 	 6386 	 6387 	 1 
6387 	 6387 	 6388 	 1 
6388 	 6388 	 6389 	 1 
6389 	 6389 	 6390 	 1 
6390 	 6390 	 6391 	 1 
6391 	 6391 	 6392 	 1 
6392 	 6392 	 6393 	 1 
6393 	 6393 	 6394 	 1 
6394 	 6394 	 6395 	 1 
6395 	 6395 	 6396 	 1 
6396 	 6396 	 6397 	 1 
6397 	 6397 	 6398 	 1 
6398 	 6398 	 6399 	 1 
6399 	 6399 	 6400 	 1 
6400 	 6400 	 6401 	 1 
6401 	 6401 	 6402 	 1 
6402 	 6402 	 6403 	 1 
6403 	 6403 	 6404 	 1 
6404 	 6404 	 6405 	 1 
6405 	 6405 	 6406 	 1 
6406 	 6406 	 6407 	 1 
6407 	 6407 	 6408 	 1 
6408 	 6408 	 6409 	 1 
6409 	 6409 	 6410 	 1 
6410 	 6410 	 6411 	 1 
6411 	 6411 	 6412 	 1 
6412 	 6412 	 6413 	 1 
6413 	 6413 	 6414 	 1 
6414 	 6414 	 6415 	 1 
6415 	 6415 	 6416 	 1 
6416 	 6416 	 6417 	 1 
6417 	 6417 	 6418 	 1 
6418 	 6418 	 6419 	 1 
6419 	 6419 	 6420 	 1 
6420 	 6420 	 6421 	 1 
6421 	 6421 	 6422 	 1 
6422 	 6422 	 6423 	 1 
6423 	 6423 	 6424 	 1 
6424 	 6424 	 6425 	 1 
6425 	 6425 	 6426 	 1 
6426 	 6426 	 6427 	 1 
6427 	 6427 	 6428 	 1 
6428 	 6428 	 6429 	 1 
6429 	 6429 	 6430 	 1 
6430 	 6430 	 6431 	 1 
6431 	 6431 	 6432 	 1 
6432 	 6432 	 6433 	 1 
6433 	 6433 	 6434 	 1 
6434 	 6434 	 6435 	 1 
6435 	 6435 	 6436 	 1 
6436 	 6436 	 6437 	 1 
6437 	 6437 	 6438 	 1 
6438 	 6438 	 6439 	 1 
6439 	 6439 	 6440 	 1 
6440 	 6440 	 6441 	 1 
6441 	 6441 	 6442 	 1 
6442 	 6442 	 6443 	 1 
6443 	 6443 	 6444 	 1 
6444 	 6444 	 6445 	 1 
6445 	 6445 	 6446 	 1 
6446 	 6446 	 6447 	 1 
6447 	 6447 	 6448 	 1 
6448 	 6448 	 6449 	 1 
6449 	 6449 	 6450 	 1 
6450 	 6450 	 6451 	 1 
6451 	 6451 	 6452 	 1 
6452 	 6452 	 6453 	 1 
6453 	 6453 	 6454 	 1 
6454 	 6454 	 6455 	 1 
6455 	 6455 	 6456 	 1 
6456 	 6456 	 6457 	 1 
6457 	 6457 	 6458 	 1 
6458 	 6458 	 6459 	 1 
6459 	 6459 	 6460 	 1 
6460 	 6460 	 6461 	 1 
6461 	 6461 	 6462 	 1 
6462 	 6462 	 6463 	 1 
6463 	 6463 	 6464 	 1 
6464 	 6464 	 6465 	 1 
6465 	 6465 	 6466 	 1 
6466 	 6466 	 6467 	 1 
6467 	 6467 	 6468 	 1 
6468 	 6468 	 6469 	 1 
6469 	 6469 	 6470 	 1 
6470 	 6470 	 6471 	 1 
6471 	 6471 	 6472 	 1 
6472 	 6472 	 6473 	 1 
6473 	 6473 	 6474 	 1 
6474 	 6474 	 6475 	 1 
6475 	 6475 	 6476 	 1 
6476 	 6476 	 6477 	 1 
6477 	 6477 	 6478 	 1 
6478 	 6478 	 6479 	 1 
6479 	 6479 	 6480 	 1 
6480 	 6480 	 6481 	 1 
6481 	 6481 	 6482 	 1 
6482 	 6482 	 6483 	 1 
6483 	 6483 	 6484 	 1 
6484 	 6484 	 6485 	 1 
6485 	 6485 	 6486 	 1 
6486 	 6486 	 6487 	 1 
6487 	 6487 	 6488 	 1 
6488 	 6488 	 6489 	 1 
6489 	 6489 	 6490 	 1 
6490 	 6490 	 6491 	 1 
6491 	 6491 	 6492 	 1 
6492 	 6492 	 6493 	 1 
6493 	 6493 	 6494 	 1 
6494 	 6494 	 6495 	 1 
6495 	 6495 	 6496 	 1 
6496 	 6496 	 6497 	 1 
6497 	 6497 	 6498 	 1 
6498 	 6498 	 6499 	 1 
6499 	 6499 	 6500 	 1 
6500 	 6500 	 6501 	 1 
6501 	 6501 	 6502 	 1 
6502 	 6502 	 6503 	 1 
6503 	 6503 	 6504 	 1 
6504 	 6504 	 6505 	 1 
6505 	 6505 	 6506 	 1 
6506 	 6506 	 6507 	 1 
6507 	 6507 	 6508 	 1 
6508 	 6508 	 6509 	 1 
6509 	 6509 	 6510 	 1 
6510 	 6510 	 6511 	 1 
6511 	 6511 	 6512 	 1 
6512 	 6512 	 6513 	 1 
6513 	 6513 	 6514 	 1 
6514 	 6514 	 6515 	 1 
6515 	 6515 	 6516 	 1 
6516 	 6516 	 6517 	 1 
6517 	 6517 	 6518 	 1 
6518 	 6518 	 6519 	 1 
6519 	 6519 	 6520 	 1 
6520 	 6520 	 6521 	 1 
6521 	 6521 	 6522 	 1 
6522 	 6522 	 6523 	 1 
6523 	 6523 	 6524 	 1 
6524 	 6524 	 6525 	 1 
6525 	 6525 	 6526 	 1 
6526 	 6526 	 6527 	 1 
6527 	 6527 	 6528 	 1 
6528 	 6528 	 6529 	 1 
6529 	 6529 	 6530 	 1 
6530 	 6530 	 6531 	 1 
6531 	 6531 	 6532 	 1 
6532 	 6532 	 6533 	 1 
6533 	 6533 	 6534 	 1 
6534 	 6534 	 6535 	 1 
6535 	 6535 	 6536 	 1 
6536 	 6536 	 6537 	 1 
6537 	 6537 	 6538 	 1 
6538 	 6538 	 6539 	 1 
6539 	 6539 	 6540 	 1 
6540 	 6540 	 6541 	 1 
6541 	 6541 	 6542 	 1 
6542 	 6542 	 6543 	 1 
6543 	 6543 	 6544 	 1 
6544 	 6544 	 6545 	 1 
6545 	 6545 	 6546 	 1 
6546 	 6546 	 6547 	 1 
6547 	 6547 	 6548 	 1 
6548 	 6548 	 6549 	 1 
6549 	 6549 	 6550 	 1 
6550 	 6550 	 6551 	 1 
6551 	 6551 	 6552 	 1 
6552 	 6552 	 6553 	 1 
6553 	 6553 	 6554 	 1 
6554 	 6554 	 6555 	 1 
6555 	 6555 	 6556 	 1 
6556 	 6556 	 6557 	 1 
6557 	 6557 	 6558 	 1 
6558 	 6558 	 6559 	 1 
6559 	 6559 	 6560 	 1 
6560 	 6560 	 6561 	 1 
6561 	 6561 	 6562 	 1 
6562 	 6562 	 6563 	 1 
6563 	 6563 	 6564 	 1 
6564 	 6564 	 6565 	 1 
6565 	 6565 	 6566 	 1 
6566 	 6566 	 6567 	 1 
6567 	 6567 	 6568 	 1 
6568 	 6568 	 6569 	 1 
6569 	 6569 	 6570 	 1 
6570 	 6570 	 6571 	 1 
6571 	 6571 	 6572 	 1 
6572 	 6572 	 6573 	 1 
6573 	 6573 	 6574 	 1 
6574 	 6574 	 6575 	 1 
6575 	 6575 	 6576 	 1 
6576 	 6576 	 6577 	 1 
6577 	 6577 	 6578 	 1 
6578 	 6578 	 6579 	 1 
6579 	 6579 	 6580 	 1 
6580 	 6580 	 6581 	 1 
6581 	 6581 	 6582 	 1 
6582 	 6582 	 6583 	 1 
6583 	 6583 	 6584 	 1 
6584 	 6584 	 6585 	 1 
6585 	 6585 	 6586 	 1 
6586 	 6586 	 6587 	 1 
6587 	 6587 	 6588 	 1 
6588 	 6588 	 6589 	 1 
6589 	 6589 	 6590 	 1 
6590 	 6590 	 6591 	 1 
6591 	 6591 	 6592 	 1 
6592 	 6592 	 6593 	 1 
6593 	 6593 	 6594 	 1 
6594 	 6594 	 6595 	 1 
6595 	 6595 	 6596 	 1 
6596 	 6596 	 6597 	 1 
6597 	 6597 	 6598 	 1 
6598 	 6598 	 6599 	 1 
6599 	 6599 	 6600 	 1 
6600 	 6600 	 6601 	 1 
6601 	 6601 	 6602 	 1 
6602 	 6602 	 6603 	 1 
6603 	 6603 	 6604 	 1 
6604 	 6604 	 6605 	 1 
6605 	 6605 	 6606 	 1 
6606 	 6606 	 6607 	 1 
6607 	 6607 	 6608 	 1 
6608 	 6608 	 6609 	 1 
6609 	 6609 	 6610 	 1 
6610 	 6610 	 6611 	 1 
6611 	 6611 	 6612 	 1 
6612 	 6612 	 6613 	 1 
6613 	 6613 	 6614 	 1 
6614 	 6614 	 6615 	 1 
6615 	 6615 	 6616 	 1 
6616 	 6616 	 6617 	 1 
6617 	 6617 	 6618 	 1 
6618 	 6618 	 6619 	 1 
6619 	 6619 	 6620 	 1 
6620 	 6620 	 6621 	 1 
6621 	 6621 	 6622 	 1 
6622 	 6622 	 6623 	 1 
6623 	 6623 	 6624 	 1 
6624 	 6624 	 6625 	 1 
6625 	 6625 	 6626 	 1 
6626 	 6626 	 6627 	 1 
6627 	 6627 	 6628 	 1 
6628 	 6628 	 6629 	 1 
6629 	 6629 	 6630 	 1 
6630 	 6630 	 6631 	 1 
6631 	 6631 	 6632 	 1 
6632 	 6632 	 6633 	 1 
6633 	 6633 	 6634 	 1 
6634 	 6634 	 6635 	 1 
6635 	 6635 	 6636 	 1 
6636 	 6636 	 6637 	 1 
6637 	 6637 	 6638 	 1 
6638 	 6638 	 6639 	 1 
6639 	 6639 	 6640 	 1 
6640 	 6640 	 6641 	 1 
6641 	 6641 	 6642 	 1 
6642 	 6642 	 6643 	 1 
6643 	 6643 	 6644 	 1 
6644 	 6644 	 6645 	 1 
6645 	 6645 	 6646 	 1 
6646 	 6646 	 6647 	 1 
6647 	 6647 	 6648 	 1 
6648 	 6648 	 6649 	 1 
6649 	 6649 	 6650 	 1 
6650 	 6650 	 6651 	 1 
6651 	 6651 	 6652 	 1 
6652 	 6652 	 6653 	 1 
6653 	 6653 	 6654 	 1 
6654 	 6654 	 6655 	 1 
6655 	 6655 	 6656 	 1 
6656 	 6656 	 6657 	 1 
6657 	 6657 	 6658 	 1 
6658 	 6658 	 6659 	 1 
6659 	 6659 	 6660 	 1 
6660 	 6660 	 6661 	 1 
6661 	 6661 	 6662 	 1 
6662 	 6662 	 6663 	 1 
6663 	 6663 	 6664 	 1 
6664 	 6664 	 6665 	 1 
6665 	 6665 	 6666 	 1 
6666 	 6666 	 6667 	 1 
6667 	 6667 	 6668 	 1 
6668 	 6668 	 6669 	 1 
6669 	 6669 	 6670 	 1 
6670 	 6670 	 6671 	 1 
6671 	 6671 	 6672 	 1 
6672 	 6672 	 6673 	 1 
6673 	 6673 	 6674 	 1 
6674 	 6674 	 6675 	 1 
6675 	 6675 	 6676 	 1 
6676 	 6676 	 6677 	 1 
6677 	 6677 	 6678 	 1 
6678 	 6678 	 6679 	 1 
6679 	 6679 	 6680 	 1 
6680 	 6680 	 6681 	 1 
6681 	 6681 	 6682 	 1 
6682 	 6682 	 6683 	 1 
6683 	 6683 	 6684 	 1 
6684 	 6684 	 6685 	 1 
6685 	 6685 	 6686 	 1 
6686 	 6686 	 6687 	 1 
6687 	 6687 	 6688 	 1 
6688 	 6688 	 6689 	 1 
6689 	 6689 	 6690 	 1 
6690 	 6690 	 6691 	 1 
6691 	 6691 	 6692 	 1 
6692 	 6692 	 6693 	 1 
6693 	 6693 	 6694 	 1 
6694 	 6694 	 6695 	 1 
6695 	 6695 	 6696 	 1 
6696 	 6696 	 6697 	 1 
6697 	 6697 	 6698 	 1 
6698 	 6698 	 6699 	 1 
6699 	 6699 	 6700 	 1 
6700 	 6700 	 6701 	 1 
6701 	 6701 	 6702 	 1 
6702 	 6702 	 6703 	 1 
6703 	 6703 	 6704 	 1 
6704 	 6704 	 6705 	 1 
6705 	 6705 	 6706 	 1 
6706 	 6706 	 6707 	 1 
6707 	 6707 	 6708 	 1 
6708 	 6708 	 6709 	 1 
6709 	 6709 	 6710 	 1 
6710 	 6710 	 6711 	 1 
6711 	 6711 	 6712 	 1 
6712 	 6712 	 6713 	 1 
6713 	 6713 	 6714 	 1 
6714 	 6714 	 6715 	 1 
6715 	 6715 	 6716 	 1 
6716 	 6716 	 6717 	 1 
6717 	 6717 	 6718 	 1 
6718 	 6718 	 6719 	 1 
6719 	 6719 	 6720 	 1 
6720 	 6720 	 6721 	 1 
6721 	 6721 	 6722 	 1 
6722 	 6722 	 6723 	 1 
6723 	 6723 	 6724 	 1 
6724 	 6724 	 6725 	 1 
6725 	 6725 	 6726 	 1 
6726 	 6726 	 6727 	 1 
6727 	 6727 	 6728 	 1 
6728 	 6728 	 6729 	 1 
6729 	 6729 	 6730 	 1 
6730 	 6730 	 6731 	 1 
6731 	 6731 	 6732 	 1 
6732 	 6732 	 6733 	 1 
6733 	 6733 	 6734 	 1 
6734 	 6734 	 6735 	 1 
6735 	 6735 	 6736 	 1 
6736 	 6736 	 6737 	 1 
6737 	 6737 	 6738 	 1 
6738 	 6738 	 6739 	 1 
6739 	 6739 	 6740 	 1 
6740 	 6740 	 6741 	 1 
6741 	 6741 	 6742 	 1 
6742 	 6742 	 6743 	 1 
6743 	 6743 	 6744 	 1 
6744 	 6744 	 6745 	 1 
6745 	 6745 	 6746 	 1 
6746 	 6746 	 6747 	 1 
6747 	 6747 	 6748 	 1 
6748 	 6748 	 6749 	 1 
6749 	 6749 	 6750 	 1 
6750 	 6750 	 6751 	 1 
6751 	 6751 	 6752 	 1 
6752 	 6752 	 6753 	 1 
6753 	 6753 	 6754 	 1 
6754 	 6754 	 6755 	 1 
6755 	 6755 	 6756 	 1 
6756 	 6756 	 6757 	 1 
6757 	 6757 	 6758 	 1 
6758 	 6758 	 6759 	 1 
6759 	 6759 	 6760 	 1 
6760 	 6760 	 6761 	 1 
6761 	 6761 	 6762 	 1 
6762 	 6762 	 6763 	 1 
6763 	 6763 	 6764 	 1 
6764 	 6764 	 6765 	 1 
6765 	 6765 	 6766 	 1 
6766 	 6766 	 6767 	 1 
6767 	 6767 	 6768 	 1 
6768 	 6768 	 6769 	 1 
6769 	 6769 	 6770 	 1 
6770 	 6770 	 6771 	 1 
6771 	 6771 	 6772 	 1 
6772 	 6772 	 6773 	 1 
6773 	 6773 	 6774 	 1 
6774 	 6774 	 6775 	 1 
6775 	 6775 	 6776 	 1 
6776 	 6776 	 6777 	 1 
6777 	 6777 	 6778 	 1 
6778 	 6778 	 6779 	 1 
6779 	 6779 	 6780 	 1 
6780 	 6780 	 6781 	 1 
6781 	 6781 	 6782 	 1 
6782 	 6782 	 6783 	 1 
6783 	 6783 	 6784 	 1 
6784 	 6784 	 6785 	 1 
6785 	 6785 	 6786 	 1 
6786 	 6786 	 6787 	 1 
6787 	 6787 	 6788 	 1 
6788 	 6788 	 6789 	 1 
6789 	 6789 	 6790 	 1 
6790 	 6790 	 6791 	 1 
6791 	 6791 	 6792 	 1 
6792 	 6792 	 6793 	 1 
6793 	 6793 	 6794 	 1 
6794 	 6794 	 6795 	 1 
6795 	 6795 	 6796 	 1 
6796 	 6796 	 6797 	 1 
6797 	 6797 	 6798 	 1 
6798 	 6798 	 6799 	 1 
6799 	 6799 	 6800 	 1 
6800 	 6800 	 6801 	 1 
6801 	 6801 	 6802 	 1 
6802 	 6802 	 6803 	 1 
6803 	 6803 	 6804 	 1 
6804 	 6804 	 6805 	 1 
6805 	 6805 	 6806 	 1 
6806 	 6806 	 6807 	 1 
6807 	 6807 	 6808 	 1 
6808 	 6808 	 6809 	 1 
6809 	 6809 	 6810 	 1 
6810 	 6810 	 6811 	 1 
6811 	 6811 	 6812 	 1 
6812 	 6812 	 6813 	 1 
6813 	 6813 	 6814 	 1 
6814 	 6814 	 6815 	 1 
6815 	 6815 	 6816 	 1 
6816 	 6816 	 6817 	 1 
6817 	 6817 	 6818 	 1 
6818 	 6818 	 6819 	 1 
6819 	 6819 	 6820 	 1 
6820 	 6820 	 6821 	 1 
6821 	 6821 	 6822 	 1 
6822 	 6822 	 6823 	 1 
6823 	 6823 	 6824 	 1 
6824 	 6824 	 6825 	 1 
6825 	 6825 	 6826 	 1 
6826 	 6826 	 6827 	 1 
6827 	 6827 	 6828 	 1 
6828 	 6828 	 6829 	 1 
6829 	 6829 	 6830 	 1 
6830 	 6830 	 6831 	 1 
6831 	 6831 	 6832 	 1 
6832 	 6832 	 6833 	 1 
6833 	 6833 	 6834 	 1 
6834 	 6834 	 6835 	 1 
6835 	 6835 	 6836 	 1 
6836 	 6836 	 6837 	 1 
6837 	 6837 	 6838 	 1 
6838 	 6838 	 6839 	 1 
6839 	 6839 	 6840 	 1 
6840 	 6840 	 6841 	 1 
6841 	 6841 	 6842 	 1 
6842 	 6842 	 6843 	 1 
6843 	 6843 	 6844 	 1 
6844 	 6844 	 6845 	 1 
6845 	 6845 	 6846 	 1 
6846 	 6846 	 6847 	 1 
6847 	 6847 	 6848 	 1 
6848 	 6848 	 6849 	 1 
6849 	 6849 	 6850 	 1 
6850 	 6850 	 6851 	 1 
6851 	 6851 	 6852 	 1 
6852 	 6852 	 6853 	 1 
6853 	 6853 	 6854 	 1 
6854 	 6854 	 6855 	 1 
6855 	 6855 	 6856 	 1 
6856 	 6856 	 6857 	 1 
6857 	 6857 	 6858 	 1 
6858 	 6858 	 6859 	 1 
6859 	 6859 	 6860 	 1 
6860 	 6860 	 6861 	 1 
6861 	 6861 	 6862 	 1 
6862 	 6862 	 6863 	 1 
6863 	 6863 	 6864 	 1 
6864 	 6864 	 6865 	 1 
6865 	 6865 	 6866 	 1 
6866 	 6866 	 6867 	 1 
6867 	 6867 	 6868 	 1 
6868 	 6868 	 6869 	 1 
6869 	 6869 	 6870 	 1 
6870 	 6870 	 6871 	 1 
6871 	 6871 	 6872 	 1 
6872 	 6872 	 6873 	 1 
6873 	 6873 	 6874 	 1 
6874 	 6874 	 6875 	 1 
6875 	 6875 	 6876 	 1 
6876 	 6876 	 6877 	 1 
6877 	 6877 	 6878 	 1 
6878 	 6878 	 6879 	 1 
6879 	 6879 	 6880 	 1 
6880 	 6880 	 6881 	 1 
6881 	 6881 	 6882 	 1 
6882 	 6882 	 6883 	 1 
6883 	 6883 	 6884 	 1 
6884 	 6884 	 6885 	 1 
6885 	 6885 	 6886 	 1 
6886 	 6886 	 6887 	 1 
6887 	 6887 	 6888 	 1 
6888 	 6888 	 6889 	 1 
6889 	 6889 	 6890 	 1 
6890 	 6890 	 6891 	 1 
6891 	 6891 	 6892 	 1 
6892 	 6892 	 6893 	 1 
6893 	 6893 	 6894 	 1 
6894 	 6894 	 6895 	 1 
6895 	 6895 	 6896 	 1 
6896 	 6896 	 6897 	 1 
6897 	 6897 	 6898 	 1 
6898 	 6898 	 6899 	 1 
6899 	 6899 	 6900 	 1 
6900 	 6900 	 6901 	 1 
6901 	 6901 	 6902 	 1 
6902 	 6902 	 6903 	 1 
6903 	 6903 	 6904 	 1 
6904 	 6904 	 6905 	 1 
6905 	 6905 	 6906 	 1 
6906 	 6906 	 6907 	 1 
6907 	 6907 	 6908 	 1 
6908 	 6908 	 6909 	 1 
6909 	 6909 	 6910 	 1 
6910 	 6910 	 6911 	 1 
6911 	 6911 	 6912 	 1 
6912 	 6912 	 6913 	 1 
6913 	 6913 	 6914 	 1 
6914 	 6914 	 6915 	 1 
6915 	 6915 	 6916 	 1 
6916 	 6916 	 6917 	 1 
6917 	 6917 	 6918 	 1 
6918 	 6918 	 6919 	 1 
6919 	 6919 	 6920 	 1 
6920 	 6920 	 6921 	 1 
6921 	 6921 	 6922 	 1 
6922 	 6922 	 6923 	 1 
6923 	 6923 	 6924 	 1 
6924 	 6924 	 6925 	 1 
6925 	 6925 	 6926 	 1 
6926 	 6926 	 6927 	 1 
6927 	 6927 	 6928 	 1 
6928 	 6928 	 6929 	 1 
6929 	 6929 	 6930 	 1 
6930 	 6930 	 6931 	 1 
6931 	 6931 	 6932 	 1 
6932 	 6932 	 6933 	 1 
6933 	 6933 	 6934 	 1 
6934 	 6934 	 6935 	 1 
6935 	 6935 	 6936 	 1 
6936 	 6936 	 6937 	 1 
6937 	 6937 	 6938 	 1 
6938 	 6938 	 6939 	 1 
6939 	 6939 	 6940 	 1 
6940 	 6940 	 6941 	 1 
6941 	 6941 	 6942 	 1 
6942 	 6942 	 6943 	 1 
6943 	 6943 	 6944 	 1 
6944 	 6944 	 6945 	 1 
6945 	 6945 	 6946 	 1 
6946 	 6946 	 6947 	 1 
6947 	 6947 	 6948 	 1 
6948 	 6948 	 6949 	 1 
6949 	 6949 	 6950 	 1 
6950 	 6950 	 6951 	 1 
6951 	 6951 	 6952 	 1 
6952 	 6952 	 6953 	 1 
6953 	 6953 	 6954 	 1 
6954 	 6954 	 6955 	 1 
6955 	 6955 	 6956 	 1 
6956 	 6956 	 6957 	 1 
6957 	 6957 	 6958 	 1 
6958 	 6958 	 6959 	 1 
6959 	 6959 	 6960 	 1 
6960 	 6960 	 6961 	 1 
6961 	 6961 	 6962 	 1 
6962 	 6962 	 6963 	 1 
6963 	 6963 	 6964 	 1 
6964 	 6964 	 6965 	 1 
6965 	 6965 	 6966 	 1 
6966 	 6966 	 6967 	 1 
6967 	 6967 	 6968 	 1 
6968 	 6968 	 6969 	 1 
6969 	 6969 	 6970 	 1 
6970 	 6970 	 6971 	 1 
6971 	 6971 	 6972 	 1 
6972 	 6972 	 6973 	 1 
6973 	 6973 	 6974 	 1 
6974 	 6974 	 6975 	 1 
6975 	 6975 	 6976 	 1 
6976 	 6976 	 6977 	 1 
6977 	 6977 	 6978 	 1 
6978 	 6978 	 6979 	 1 
6979 	 6979 	 6980 	 1 
6980 	 6980 	 6981 	 1 
6981 	 6981 	 6982 	 1 
6982 	 6982 	 6983 	 1 
6983 	 6983 	 6984 	 1 
6984 	 6984 	 6985 	 1 
6985 	 6985 	 6986 	 1 
6986 	 6986 	 6987 	 1 
6987 	 6987 	 6988 	 1 
6988 	 6988 	 6989 	 1 
6989 	 6989 	 6990 	 1 
6990 	 6990 	 6991 	 1 
6991 	 6991 	 6992 	 1 
6992 	 6992 	 6993 	 1 
6993 	 6993 	 6994 	 1 
6994 	 6994 	 6995 	 1 
6995 	 6995 	 6996 	 1 
6996 	 6996 	 6997 	 1 
6997 	 6997 	 6998 	 1 
6998 	 6998 	 6999 	 1 
6999 	 6999 	 7000 	 1 
7000 	 7000 	 7001 	 1 
7001 	 7001 	 7002 	 1 
7002 	 7002 	 7003 	 1 
7003 	 7003 	 7004 	 1 
7004 	 7004 	 7005 	 1 
7005 	 7005 	 7006 	 1 
7006 	 7006 	 7007 	 1 
7007 	 7007 	 7008 	 1 
7008 	 7008 	 7009 	 1 
7009 	 7009 	 7010 	 1 
7010 	 7010 	 7011 	 1 
7011 	 7011 	 7012 	 1 
7012 	 7012 	 7013 	 1 
7013 	 7013 	 7014 	 1 
7014 	 7014 	 7015 	 1 
7015 	 7015 	 7016 	 1 
7016 	 7016 	 7017 	 1 
7017 	 7017 	 7018 	 1 
7018 	 7018 	 7019 	 1 
7019 	 7019 	 7020 	 1 
7020 	 7020 	 7021 	 1 
7021 	 7021 	 7022 	 1 
7022 	 7022 	 7023 	 1 
7023 	 7023 	 7024 	 1 
7024 	 7024 	 7025 	 1 
7025 	 7025 	 7026 	 1 
7026 	 7026 	 7027 	 1 
7027 	 7027 	 7028 	 1 
7028 	 7028 	 7029 	 1 
7029 	 7029 	 7030 	 1 
7030 	 7030 	 7031 	 1 
7031 	 7031 	 7032 	 1 
7032 	 7032 	 7033 	 1 
7033 	 7033 	 7034 	 1 
7034 	 7034 	 7035 	 1 
7035 	 7035 	 7036 	 1 
7036 	 7036 	 7037 	 1 
7037 	 7037 	 7038 	 1 
7038 	 7038 	 7039 	 1 
7039 	 7039 	 7040 	 1 
7040 	 7040 	 7041 	 1 
7041 	 7041 	 7042 	 1 
7042 	 7042 	 7043 	 1 
7043 	 7043 	 7044 	 1 
7044 	 7044 	 7045 	 1 
7045 	 7045 	 7046 	 1 
7046 	 7046 	 7047 	 1 
7047 	 7047 	 7048 	 1 
7048 	 7048 	 7049 	 1 
7049 	 7049 	 7050 	 1 
7050 	 7050 	 7051 	 1 
7051 	 7051 	 7052 	 1 
7052 	 7052 	 7053 	 1 
7053 	 7053 	 7054 	 1 
7054 	 7054 	 7055 	 1 
7055 	 7055 	 7056 	 1 
7056 	 7056 	 7057 	 1 
7057 	 7057 	 7058 	 1 
7058 	 7058 	 7059 	 1 
7059 	 7059 	 7060 	 1 
7060 	 7060 	 7061 	 1 
7061 	 7061 	 7062 	 1 
7062 	 7062 	 7063 	 1 
7063 	 7063 	 7064 	 1 
7064 	 7064 	 7065 	 1 
7065 	 7065 	 7066 	 1 
7066 	 7066 	 7067 	 1 
7067 	 7067 	 7068 	 1 
7068 	 7068 	 7069 	 1 
7069 	 7069 	 7070 	 1 
7070 	 7070 	 7071 	 1 
7071 	 7071 	 7072 	 1 
7072 	 7072 	 7073 	 1 
7073 	 7073 	 7074 	 1 
7074 	 7074 	 7075 	 1 
7075 	 7075 	 7076 	 1 
7076 	 7076 	 7077 	 1 
7077 	 7077 	 7078 	 1 
7078 	 7078 	 7079 	 1 
7079 	 7079 	 7080 	 1 
7080 	 7080 	 7081 	 1 
7081 	 7081 	 7082 	 1 
7082 	 7082 	 7083 	 1 
7083 	 7083 	 7084 	 1 
7084 	 7084 	 7085 	 1 
7085 	 7085 	 7086 	 1 
7086 	 7086 	 7087 	 1 
7087 	 7087 	 7088 	 1 
7088 	 7088 	 7089 	 1 
7089 	 7089 	 7090 	 1 
7090 	 7090 	 7091 	 1 
7091 	 7091 	 7092 	 1 
7092 	 7092 	 7093 	 1 
7093 	 7093 	 7094 	 1 
7094 	 7094 	 7095 	 1 
7095 	 7095 	 7096 	 1 
7096 	 7096 	 7097 	 1 
7097 	 7097 	 7098 	 1 
7098 	 7098 	 7099 	 1 
7099 	 7099 	 7100 	 1 
7100 	 7100 	 7101 	 1 
7101 	 7101 	 7102 	 1 
7102 	 7102 	 7103 	 1 
7103 	 7103 	 7104 	 1 
7104 	 7104 	 7105 	 1 
7105 	 7105 	 7106 	 1 
7106 	 7106 	 7107 	 1 
7107 	 7107 	 7108 	 1 
7108 	 7108 	 7109 	 1 
7109 	 7109 	 7110 	 1 
7110 	 7110 	 7111 	 1 
7111 	 7111 	 7112 	 1 
7112 	 7112 	 7113 	 1 
7113 	 7113 	 7114 	 1 
7114 	 7114 	 7115 	 1 
7115 	 7115 	 7116 	 1 
7116 	 7116 	 7117 	 1 
7117 	 7117 	 7118 	 1 
7118 	 7118 	 7119 	 1 
7119 	 7119 	 7120 	 1 
7120 	 7120 	 7121 	 1 
7121 	 7121 	 7122 	 1 
7122 	 7122 	 7123 	 1 
7123 	 7123 	 7124 	 1 
7124 	 7124 	 7125 	 1 
7125 	 7125 	 7126 	 1 
7126 	 7126 	 7127 	 1 
7127 	 7127 	 7128 	 1 
7128 	 7128 	 7129 	 1 
7129 	 7129 	 7130 	 1 
7130 	 7130 	 7131 	 1 
7131 	 7131 	 7132 	 1 
7132 	 7132 	 7133 	 1 
7133 	 7133 	 7134 	 1 
7134 	 7134 	 7135 	 1 
7135 	 7135 	 7136 	 1 
7136 	 7136 	 7137 	 1 
7137 	 7137 	 7138 	 1 
7138 	 7138 	 7139 	 1 
7139 	 7139 	 7140 	 1 
7140 	 7140 	 7141 	 1 
7141 	 7141 	 7142 	 1 
7142 	 7142 	 7143 	 1 
7143 	 7143 	 7144 	 1 
7144 	 7144 	 7145 	 1 
7145 	 7145 	 7146 	 1 
7146 	 7146 	 7147 	 1 
7147 	 7147 	 7148 	 1 
7148 	 7148 	 7149 	 1 
7149 	 7149 	 7150 	 1 
7150 	 7150 	 7151 	 1 
7151 	 7151 	 7152 	 1 
7152 	 7152 	 7153 	 1 
7153 	 7153 	 7154 	 1 
7154 	 7154 	 7155 	 1 
7155 	 7155 	 7156 	 1 
7156 	 7156 	 7157 	 1 
7157 	 7157 	 7158 	 1 
7158 	 7158 	 7159 	 1 
7159 	 7159 	 7160 	 1 
7160 	 7160 	 7161 	 1 
7161 	 7161 	 7162 	 1 
7162 	 7162 	 7163 	 1 
7163 	 7163 	 7164 	 1 
7164 	 7164 	 7165 	 1 
7165 	 7165 	 7166 	 1 
7166 	 7166 	 7167 	 1 
7167 	 7167 	 7168 	 1 
7168 	 7168 	 7169 	 1 
7169 	 7169 	 7170 	 1 
7170 	 7170 	 7171 	 1 
7171 	 7171 	 7172 	 1 
7172 	 7172 	 7173 	 1 
7173 	 7173 	 7174 	 1 
7174 	 7174 	 7175 	 1 
7175 	 7175 	 7176 	 1 
7176 	 7176 	 7177 	 1 
7177 	 7177 	 7178 	 1 
7178 	 7178 	 7179 	 1 
7179 	 7179 	 7180 	 1 
7180 	 7180 	 7181 	 1 
7181 	 7181 	 7182 	 1 
7182 	 7182 	 7183 	 1 
7183 	 7183 	 7184 	 1 
7184 	 7184 	 7185 	 1 
7185 	 7185 	 7186 	 1 
7186 	 7186 	 7187 	 1 
7187 	 7187 	 7188 	 1 
7188 	 7188 	 7189 	 1 
7189 	 7189 	 7190 	 1 
7190 	 7190 	 7191 	 1 
7191 	 7191 	 7192 	 1 
7192 	 7192 	 7193 	 1 
7193 	 7193 	 7194 	 1 
7194 	 7194 	 7195 	 1 
7195 	 7195 	 7196 	 1 
7196 	 7196 	 7197 	 1 
7197 	 7197 	 7198 	 1 
7198 	 7198 	 7199 	 1 
7199 	 7199 	 7200 	 1 
7200 	 7200 	 7201 	 1 
7201 	 7201 	 7202 	 1 
7202 	 7202 	 7203 	 1 
7203 	 7203 	 7204 	 1 
7204 	 7204 	 7205 	 1 
7205 	 7205 	 7206 	 1 
7206 	 7206 	 7207 	 1 
7207 	 7207 	 7208 	 1 
7208 	 7208 	 7209 	 1 
7209 	 7209 	 7210 	 1 
7210 	 7210 	 7211 	 1 
7211 	 7211 	 7212 	 1 
7212 	 7212 	 7213 	 1 
7213 	 7213 	 7214 	 1 
7214 	 7214 	 7215 	 1 
7215 	 7215 	 7216 	 1 
7216 	 7216 	 7217 	 1 
7217 	 7217 	 7218 	 1 
7218 	 7218 	 7219 	 1 
7219 	 7219 	 7220 	 1 
7220 	 7220 	 7221 	 1 
7221 	 7221 	 7222 	 1 
7222 	 7222 	 7223 	 1 
7223 	 7223 	 7224 	 1 
7224 	 7224 	 7225 	 1 
7225 	 7225 	 7226 	 1 
7226 	 7226 	 7227 	 1 
7227 	 7227 	 7228 	 1 
7228 	 7228 	 7229 	 1 
7229 	 7229 	 7230 	 1 
7230 	 7230 	 7231 	 1 
7231 	 7231 	 7232 	 1 
7232 	 7232 	 7233 	 1 
7233 	 7233 	 7234 	 1 
7234 	 7234 	 7235 	 1 
7235 	 7235 	 7236 	 1 
7236 	 7236 	 7237 	 1 
7237 	 7237 	 7238 	 1 
7238 	 7238 	 7239 	 1 
7239 	 7239 	 7240 	 1 
7240 	 7240 	 7241 	 1 
7241 	 7241 	 7242 	 1 
7242 	 7242 	 7243 	 1 
7243 	 7243 	 7244 	 1 
7244 	 7244 	 7245 	 1 
7245 	 7245 	 7246 	 1 
7246 	 7246 	 7247 	 1 
7247 	 7247 	 7248 	 1 
7248 	 7248 	 7249 	 1 
7249 	 7249 	 7250 	 1 
7250 	 7250 	 7251 	 1 
7251 	 7251 	 7252 	 1 
7252 	 7252 	 7253 	 1 
7253 	 7253 	 7254 	 1 
7254 	 7254 	 7255 	 1 
7255 	 7255 	 7256 	 1 
7256 	 7256 	 7257 	 1 
7257 	 7257 	 7258 	 1 
7258 	 7258 	 7259 	 1 
7259 	 7259 	 7260 	 1 
7260 	 7260 	 7261 	 1 
7261 	 7261 	 7262 	 1 
7262 	 7262 	 7263 	 1 
7263 	 7263 	 7264 	 1 
7264 	 7264 	 7265 	 1 
7265 	 7265 	 7266 	 1 
7266 	 7266 	 7267 	 1 
7267 	 7267 	 7268 	 1 
7268 	 7268 	 7269 	 1 
7269 	 7269 	 7270 	 1 
7270 	 7270 	 7271 	 1 
7271 	 7271 	 7272 	 1 
7272 	 7272 	 7273 	 1 
7273 	 7273 	 7274 	 1 
7274 	 7274 	 7275 	 1 
7275 	 7275 	 7276 	 1 
7276 	 7276 	 7277 	 1 
7277 	 7277 	 7278 	 1 
7278 	 7278 	 7279 	 1 
7279 	 7279 	 7280 	 1 
7280 	 7280 	 7281 	 1 
7281 	 7281 	 7282 	 1 
7282 	 7282 	 7283 	 1 
7283 	 7283 	 7284 	 1 
7284 	 7284 	 7285 	 1 
7285 	 7285 	 7286 	 1 
7286 	 7286 	 7287 	 1 
7287 	 7287 	 7288 	 1 
7288 	 7288 	 7289 	 1 
7289 	 7289 	 7290 	 1 
7290 	 7290 	 7291 	 1 
7291 	 7291 	 7292 	 1 
7292 	 7292 	 7293 	 1 
7293 	 7293 	 7294 	 1 
7294 	 7294 	 7295 	 1 
7295 	 7295 	 7296 	 1 
7296 	 7296 	 7297 	 1 
7297 	 7297 	 7298 	 1 
7298 	 7298 	 7299 	 1 
7299 	 7299 	 7300 	 1 
7300 	 7300 	 7301 	 1 
7301 	 7301 	 7302 	 1 
7302 	 7302 	 7303 	 1 
7303 	 7303 	 7304 	 1 
7304 	 7304 	 7305 	 1 
7305 	 7305 	 7306 	 1 
7306 	 7306 	 7307 	 1 
7307 	 7307 	 7308 	 1 
7308 	 7308 	 7309 	 1 
7309 	 7309 	 7310 	 1 
7310 	 7310 	 7311 	 1 
7311 	 7311 	 7312 	 1 
7312 	 7312 	 7313 	 1 
7313 	 7313 	 7314 	 1 
7314 	 7314 	 7315 	 1 
7315 	 7315 	 7316 	 1 
7316 	 7316 	 7317 	 1 
7317 	 7317 	 7318 	 1 
7318 	 7318 	 7319 	 1 
7319 	 7319 	 7320 	 1 
7320 	 7320 	 7321 	 1 
7321 	 7321 	 7322 	 1 
7322 	 7322 	 7323 	 1 
7323 	 7323 	 7324 	 1 
7324 	 7324 	 7325 	 1 
7325 	 7325 	 7326 	 1 
7326 	 7326 	 7327 	 1 
7327 	 7327 	 7328 	 1 
7328 	 7328 	 7329 	 1 
7329 	 7329 	 7330 	 1 
7330 	 7330 	 7331 	 1 
7331 	 7331 	 7332 	 1 
7332 	 7332 	 7333 	 1 
7333 	 7333 	 7334 	 1 
7334 	 7334 	 7335 	 1 
7335 	 7335 	 7336 	 1 
7336 	 7336 	 7337 	 1 
7337 	 7337 	 7338 	 1 
7338 	 7338 	 7339 	 1 
7339 	 7339 	 7340 	 1 
7340 	 7340 	 7341 	 1 
7341 	 7341 	 7342 	 1 
7342 	 7342 	 7343 	 1 
7343 	 7343 	 7344 	 1 
7344 	 7344 	 7345 	 1 
7345 	 7345 	 7346 	 1 
7346 	 7346 	 7347 	 1 
7347 	 7347 	 7348 	 1 
7348 	 7348 	 7349 	 1 
7349 	 7349 	 7350 	 1 
7350 	 7350 	 7351 	 1 
7351 	 7351 	 7352 	 1 
7352 	 7352 	 7353 	 1 
7353 	 7353 	 7354 	 1 
7354 	 7354 	 7355 	 1 
7355 	 7355 	 7356 	 1 
7356 	 7356 	 7357 	 1 
7357 	 7357 	 7358 	 1 
7358 	 7358 	 7359 	 1 
7359 	 7359 	 7360 	 1 
7360 	 7360 	 7361 	 1 
7361 	 7361 	 7362 	 1 
7362 	 7362 	 7363 	 1 
7363 	 7363 	 7364 	 1 
7364 	 7364 	 7365 	 1 
7365 	 7365 	 7366 	 1 
7366 	 7366 	 7367 	 1 
7367 	 7367 	 7368 	 1 
7368 	 7368 	 7369 	 1 
7369 	 7369 	 7370 	 1 
7370 	 7370 	 7371 	 1 
7371 	 7371 	 7372 	 1 
7372 	 7372 	 7373 	 1 
7373 	 7373 	 7374 	 1 
7374 	 7374 	 7375 	 1 
7375 	 7375 	 7376 	 1 
7376 	 7376 	 7377 	 1 
7377 	 7377 	 7378 	 1 
7378 	 7378 	 7379 	 1 
7379 	 7379 	 7380 	 1 
7380 	 7380 	 7381 	 1 
7381 	 7381 	 7382 	 1 
7382 	 7382 	 7383 	 1 
7383 	 7383 	 7384 	 1 
7384 	 7384 	 7385 	 1 
7385 	 7385 	 7386 	 1 
7386 	 7386 	 7387 	 1 
7387 	 7387 	 7388 	 1 
7388 	 7388 	 7389 	 1 
7389 	 7389 	 7390 	 1 
7390 	 7390 	 7391 	 1 
7391 	 7391 	 7392 	 1 
7392 	 7392 	 7393 	 1 
7393 	 7393 	 7394 	 1 
7394 	 7394 	 7395 	 1 
7395 	 7395 	 7396 	 1 
7396 	 7396 	 7397 	 1 
7397 	 7397 	 7398 	 1 
7398 	 7398 	 7399 	 1 
7399 	 7399 	 7400 	 1 
7400 	 7400 	 7401 	 1 
7401 	 7401 	 7402 	 1 
7402 	 7402 	 7403 	 1 
7403 	 7403 	 7404 	 1 
7404 	 7404 	 7405 	 1 
7405 	 7405 	 7406 	 1 
7406 	 7406 	 7407 	 1 
7407 	 7407 	 7408 	 1 
7408 	 7408 	 7409 	 1 
7409 	 7409 	 7410 	 1 
7410 	 7410 	 7411 	 1 
7411 	 7411 	 7412 	 1 
7412 	 7412 	 7413 	 1 
7413 	 7413 	 7414 	 1 
7414 	 7414 	 7415 	 1 
7415 	 7415 	 7416 	 1 
7416 	 7416 	 7417 	 1 
7417 	 7417 	 7418 	 1 
7418 	 7418 	 7419 	 1 
7419 	 7419 	 7420 	 1 
7420 	 7420 	 7421 	 1 
7421 	 7421 	 7422 	 1 
7422 	 7422 	 7423 	 1 
7423 	 7423 	 7424 	 1 
7424 	 7424 	 7425 	 1 
7425 	 7425 	 7426 	 1 
7426 	 7426 	 7427 	 1 
7427 	 7427 	 7428 	 1 
7428 	 7428 	 7429 	 1 
7429 	 7429 	 7430 	 1 
7430 	 7430 	 7431 	 1 
7431 	 7431 	 7432 	 1 
7432 	 7432 	 7433 	 1 
7433 	 7433 	 7434 	 1 
7434 	 7434 	 7435 	 1 
7435 	 7435 	 7436 	 1 
7436 	 7436 	 7437 	 1 
7437 	 7437 	 7438 	 1 
7438 	 7438 	 7439 	 1 
7439 	 7439 	 7440 	 1 
7440 	 7440 	 7441 	 1 
7441 	 7441 	 7442 	 1 
7442 	 7442 	 7443 	 1 
7443 	 7443 	 7444 	 1 
7444 	 7444 	 7445 	 1 
7445 	 7445 	 7446 	 1 
7446 	 7446 	 7447 	 1 
7447 	 7447 	 7448 	 1 
7448 	 7448 	 7449 	 1 
7449 	 7449 	 7450 	 1 
7450 	 7450 	 7451 	 1 
7451 	 7451 	 7452 	 1 
7452 	 7452 	 7453 	 1 
7453 	 7453 	 7454 	 1 
7454 	 7454 	 7455 	 1 
7455 	 7455 	 7456 	 1 
7456 	 7456 	 7457 	 1 
7457 	 7457 	 7458 	 1 
7458 	 7458 	 7459 	 1 
7459 	 7459 	 7460 	 1 
7460 	 7460 	 7461 	 1 
7461 	 7461 	 7462 	 1 
7462 	 7462 	 7463 	 1 
7463 	 7463 	 7464 	 1 
7464 	 7464 	 7465 	 1 
7465 	 7465 	 7466 	 1 
7466 	 7466 	 7467 	 1 
7467 	 7467 	 7468 	 1 
7468 	 7468 	 7469 	 1 
7469 	 7469 	 7470 	 1 
7470 	 7470 	 7471 	 1 
7471 	 7471 	 7472 	 1 
7472 	 7472 	 7473 	 1 
7473 	 7473 	 7474 	 1 
7474 	 7474 	 7475 	 1 
7475 	 7475 	 7476 	 1 
7476 	 7476 	 7477 	 1 
7477 	 7477 	 7478 	 1 
7478 	 7478 	 7479 	 1 
7479 	 7479 	 7480 	 1 
7480 	 7480 	 7481 	 1 
7481 	 7481 	 7482 	 1 
7482 	 7482 	 7483 	 1 
7483 	 7483 	 7484 	 1 
7484 	 7484 	 7485 	 1 
7485 	 7485 	 7486 	 1 
7486 	 7486 	 7487 	 1 
7487 	 7487 	 7488 	 1 
7488 	 7488 	 7489 	 1 
7489 	 7489 	 7490 	 1 
7490 	 7490 	 7491 	 1 
7491 	 7491 	 7492 	 1 
7492 	 7492 	 7493 	 1 
7493 	 7493 	 7494 	 1 
7494 	 7494 	 7495 	 1 
7495 	 7495 	 7496 	 1 
7496 	 7496 	 7497 	 1 
7497 	 7497 	 7498 	 1 
7498 	 7498 	 7499 	 1 
7499 	 7499 	 7500 	 1 
7500 	 7500 	 7501 	 1 
7501 	 7501 	 7502 	 1 
7502 	 7502 	 7503 	 1 
7503 	 7503 	 7504 	 1 
7504 	 7504 	 7505 	 1 
7505 	 7505 	 7506 	 1 
7506 	 7506 	 7507 	 1 
7507 	 7507 	 7508 	 1 
7508 	 7508 	 7509 	 1 
7509 	 7509 	 7510 	 1 
7510 	 7510 	 7511 	 1 
7511 	 7511 	 7512 	 1 
7512 	 7512 	 7513 	 1 
7513 	 7513 	 7514 	 1 
7514 	 7514 	 7515 	 1 
7515 	 7515 	 7516 	 1 
7516 	 7516 	 7517 	 1 
7517 	 7517 	 7518 	 1 
7518 	 7518 	 7519 	 1 
7519 	 7519 	 7520 	 1 
7520 	 7520 	 7521 	 1 
7521 	 7521 	 7522 	 1 
7522 	 7522 	 7523 	 1 
7523 	 7523 	 7524 	 1 
7524 	 7524 	 7525 	 1 
7525 	 7525 	 7526 	 1 
7526 	 7526 	 7527 	 1 
7527 	 7527 	 7528 	 1 
7528 	 7528 	 7529 	 1 
7529 	 7529 	 7530 	 1 
7530 	 7530 	 7531 	 1 
7531 	 7531 	 7532 	 1 
7532 	 7532 	 7533 	 1 
7533 	 7533 	 7534 	 1 
7534 	 7534 	 7535 	 1 
7535 	 7535 	 7536 	 1 
7536 	 7536 	 7537 	 1 
7537 	 7537 	 7538 	 1 
7538 	 7538 	 7539 	 1 
7539 	 7539 	 7540 	 1 
7540 	 7540 	 7541 	 1 
7541 	 7541 	 7542 	 1 
7542 	 7542 	 7543 	 1 
7543 	 7543 	 7544 	 1 
7544 	 7544 	 7545 	 1 
7545 	 7545 	 7546 	 1 
7546 	 7546 	 7547 	 1 
7547 	 7547 	 7548 	 1 
7548 	 7548 	 7549 	 1 
7549 	 7549 	 7550 	 1 
7550 	 7550 	 7551 	 1 
7551 	 7551 	 7552 	 1 
7552 	 7552 	 7553 	 1 
7553 	 7553 	 7554 	 1 
7554 	 7554 	 7555 	 1 
7555 	 7555 	 7556 	 1 
7556 	 7556 	 7557 	 1 
7557 	 7557 	 7558 	 1 
7558 	 7558 	 7559 	 1 
7559 	 7559 	 7560 	 1 
7560 	 7560 	 7561 	 1 
7561 	 7561 	 7562 	 1 
7562 	 7562 	 7563 	 1 
7563 	 7563 	 7564 	 1 
7564 	 7564 	 7565 	 1 
7565 	 7565 	 7566 	 1 
7566 	 7566 	 7567 	 1 
7567 	 7567 	 7568 	 1 
7568 	 7568 	 7569 	 1 
7569 	 7569 	 7570 	 1 
7570 	 7570 	 7571 	 1 
7571 	 7571 	 7572 	 1 
7572 	 7572 	 7573 	 1 
7573 	 7573 	 7574 	 1 
7574 	 7574 	 7575 	 1 
7575 	 7575 	 7576 	 1 
7576 	 7576 	 7577 	 1 
7577 	 7577 	 7578 	 1 
7578 	 7578 	 7579 	 1 
7579 	 7579 	 7580 	 1 
7580 	 7580 	 7581 	 1 
7581 	 7581 	 7582 	 1 
7582 	 7582 	 7583 	 1 
7583 	 7583 	 7584 	 1 
7584 	 7584 	 7585 	 1 
7585 	 7585 	 7586 	 1 
7586 	 7586 	 7587 	 1 
7587 	 7587 	 7588 	 1 
7588 	 7588 	 7589 	 1 
7589 	 7589 	 7590 	 1 
7590 	 7590 	 7591 	 1 
7591 	 7591 	 7592 	 1 
7592 	 7592 	 7593 	 1 
7593 	 7593 	 7594 	 1 
7594 	 7594 	 7595 	 1 
7595 	 7595 	 7596 	 1 
7596 	 7596 	 7597 	 1 
7597 	 7597 	 7598 	 1 
7598 	 7598 	 7599 	 1 
7599 	 7599 	 7600 	 1 
7600 	 7600 	 7601 	 1 
7601 	 7601 	 7602 	 1 
7602 	 7602 	 7603 	 1 
7603 	 7603 	 7604 	 1 
7604 	 7604 	 7605 	 1 
7605 	 7605 	 7606 	 1 
7606 	 7606 	 7607 	 1 
7607 	 7607 	 7608 	 1 
7608 	 7608 	 7609 	 1 
7609 	 7609 	 7610 	 1 
7610 	 7610 	 7611 	 1 
7611 	 7611 	 7612 	 1 
7612 	 7612 	 7613 	 1 
7613 	 7613 	 7614 	 1 
7614 	 7614 	 7615 	 1 
7615 	 7615 	 7616 	 1 
7616 	 7616 	 7617 	 1 
7617 	 7617 	 7618 	 1 
7618 	 7618 	 7619 	 1 
7619 	 7619 	 7620 	 1 
7620 	 7620 	 7621 	 1 
7621 	 7621 	 7622 	 1 
7622 	 7622 	 7623 	 1 
7623 	 7623 	 7624 	 1 
7624 	 7624 	 7625 	 1 
7625 	 7625 	 7626 	 1 
7626 	 7626 	 7627 	 1 
7627 	 7627 	 7628 	 1 
7628 	 7628 	 7629 	 1 
7629 	 7629 	 7630 	 1 
7630 	 7630 	 7631 	 1 
7631 	 7631 	 7632 	 1 
7632 	 7632 	 7633 	 1 
7633 	 7633 	 7634 	 1 
7634 	 7634 	 7635 	 1 
7635 	 7635 	 7636 	 1 
7636 	 7636 	 7637 	 1 
7637 	 7637 	 7638 	 1 
7638 	 7638 	 7639 	 1 
7639 	 7639 	 7640 	 1 
7640 	 7640 	 7641 	 1 
7641 	 7641 	 7642 	 1 
7642 	 7642 	 7643 	 1 
7643 	 7643 	 7644 	 1 
7644 	 7644 	 7645 	 1 
7645 	 7645 	 7646 	 1 
7646 	 7646 	 7647 	 1 
7647 	 7647 	 7648 	 1 
7648 	 7648 	 7649 	 1 
7649 	 7649 	 7650 	 1 
7650 	 7650 	 7651 	 1 
7651 	 7651 	 7652 	 1 
7652 	 7652 	 7653 	 1 
7653 	 7653 	 7654 	 1 
7654 	 7654 	 7655 	 1 
7655 	 7655 	 7656 	 1 
7656 	 7656 	 7657 	 1 
7657 	 7657 	 7658 	 1 
7658 	 7658 	 7659 	 1 
7659 	 7659 	 7660 	 1 
7660 	 7660 	 7661 	 1 
7661 	 7661 	 7662 	 1 
7662 	 7662 	 7663 	 1 
7663 	 7663 	 7664 	 1 
7664 	 7664 	 7665 	 1 
7665 	 7665 	 7666 	 1 
7666 	 7666 	 7667 	 1 
7667 	 7667 	 7668 	 1 
7668 	 7668 	 7669 	 1 
7669 	 7669 	 7670 	 1 
7670 	 7670 	 7671 	 1 
7671 	 7671 	 7672 	 1 
7672 	 7672 	 7673 	 1 
7673 	 7673 	 7674 	 1 
7674 	 7674 	 7675 	 1 
7675 	 7675 	 7676 	 1 
7676 	 7676 	 7677 	 1 
7677 	 7677 	 7678 	 1 
7678 	 7678 	 7679 	 1 
7679 	 7679 	 7680 	 1 
7680 	 7680 	 7681 	 1 
7681 	 7681 	 7682 	 1 
7682 	 7682 	 7683 	 1 
7683 	 7683 	 7684 	 1 
7684 	 7684 	 7685 	 1 
7685 	 7685 	 7686 	 1 
7686 	 7686 	 7687 	 1 
7687 	 7687 	 7688 	 1 
7688 	 7688 	 7689 	 1 
7689 	 7689 	 7690 	 1 
7690 	 7690 	 7691 	 1 
7691 	 7691 	 7692 	 1 
7692 	 7692 	 7693 	 1 
7693 	 7693 	 7694 	 1 
7694 	 7694 	 7695 	 1 
7695 	 7695 	 7696 	 1 
7696 	 7696 	 7697 	 1 
7697 	 7697 	 7698 	 1 
7698 	 7698 	 7699 	 1 
7699 	 7699 	 7700 	 1 
7700 	 7700 	 7701 	 1 
7701 	 7701 	 7702 	 1 
7702 	 7702 	 7703 	 1 
7703 	 7703 	 7704 	 1 
7704 	 7704 	 7705 	 1 
7705 	 7705 	 7706 	 1 
7706 	 7706 	 7707 	 1 
7707 	 7707 	 7708 	 1 
7708 	 7708 	 7709 	 1 
7709 	 7709 	 7710 	 1 
7710 	 7710 	 7711 	 1 
7711 	 7711 	 7712 	 1 
7712 	 7712 	 7713 	 1 
7713 	 7713 	 7714 	 1 
7714 	 7714 	 7715 	 1 
7715 	 7715 	 7716 	 1 
7716 	 7716 	 7717 	 1 
7717 	 7717 	 7718 	 1 
7718 	 7718 	 7719 	 1 
7719 	 7719 	 7720 	 1 
7720 	 7720 	 7721 	 1 
7721 	 7721 	 7722 	 1 
7722 	 7722 	 7723 	 1 
7723 	 7723 	 7724 	 1 
7724 	 7724 	 7725 	 1 
7725 	 7725 	 7726 	 1 
7726 	 7726 	 7727 	 1 
7727 	 7727 	 7728 	 1 
7728 	 7728 	 7729 	 1 
7729 	 7729 	 7730 	 1 
7730 	 7730 	 7731 	 1 
7731 	 7731 	 7732 	 1 
7732 	 7732 	 7733 	 1 
7733 	 7733 	 7734 	 1 
7734 	 7734 	 7735 	 1 
7735 	 7735 	 7736 	 1 
7736 	 7736 	 7737 	 1 
7737 	 7737 	 7738 	 1 
7738 	 7738 	 7739 	 1 
7739 	 7739 	 7740 	 1 
7740 	 7740 	 7741 	 1 
7741 	 7741 	 7742 	 1 
7742 	 7742 	 7743 	 1 
7743 	 7743 	 7744 	 1 
7744 	 7744 	 7745 	 1 
7745 	 7745 	 7746 	 1 
7746 	 7746 	 7747 	 1 
7747 	 7747 	 7748 	 1 
7748 	 7748 	 7749 	 1 
7749 	 7749 	 7750 	 1 
7750 	 7750 	 7751 	 1 
7751 	 7751 	 7752 	 1 
7752 	 7752 	 7753 	 1 
7753 	 7753 	 7754 	 1 
7754 	 7754 	 7755 	 1 
7755 	 7755 	 7756 	 1 
7756 	 7756 	 7757 	 1 
7757 	 7757 	 7758 	 1 
7758 	 7758 	 7759 	 1 
7759 	 7759 	 7760 	 1 
7760 	 7760 	 7761 	 1 
7761 	 7761 	 7762 	 1 
7762 	 7762 	 7763 	 1 
7763 	 7763 	 7764 	 1 
7764 	 7764 	 7765 	 1 
7765 	 7765 	 7766 	 1 
7766 	 7766 	 7767 	 1 
7767 	 7767 	 7768 	 1 
7768 	 7768 	 7769 	 1 
7769 	 7769 	 7770 	 1 
7770 	 7770 	 7771 	 1 
7771 	 7771 	 7772 	 1 
7772 	 7772 	 7773 	 1 
7773 	 7773 	 7774 	 1 
7774 	 7774 	 7775 	 1 
7775 	 7775 	 7776 	 1 
7776 	 7776 	 7777 	 1 
7777 	 7777 	 7778 	 1 
7778 	 7778 	 7779 	 1 
7779 	 7779 	 7780 	 1 
7780 	 7780 	 7781 	 1 
7781 	 7781 	 7782 	 1 
7782 	 7782 	 7783 	 1 
7783 	 7783 	 7784 	 1 
7784 	 7784 	 7785 	 1 
7785 	 7785 	 7786 	 1 
7786 	 7786 	 7787 	 1 
7787 	 7787 	 7788 	 1 
7788 	 7788 	 7789 	 1 
7789 	 7789 	 7790 	 1 
7790 	 7790 	 7791 	 1 
7791 	 7791 	 7792 	 1 
7792 	 7792 	 7793 	 1 
7793 	 7793 	 7794 	 1 
7794 	 7794 	 7795 	 1 
7795 	 7795 	 7796 	 1 
7796 	 7796 	 7797 	 1 
7797 	 7797 	 7798 	 1 
7798 	 7798 	 7799 	 1 
7799 	 7799 	 7800 	 1 
7800 	 7800 	 7801 	 1 
7801 	 7801 	 7802 	 1 
7802 	 7802 	 7803 	 1 
7803 	 7803 	 7804 	 1 
7804 	 7804 	 7805 	 1 
7805 	 7805 	 7806 	 1 
7806 	 7806 	 7807 	 1 
7807 	 7807 	 7808 	 1 
7808 	 7808 	 7809 	 1 
7809 	 7809 	 7810 	 1 
7810 	 7810 	 7811 	 1 
7811 	 7811 	 7812 	 1 
7812 	 7812 	 7813 	 1 
7813 	 7813 	 7814 	 1 
7814 	 7814 	 7815 	 1 
7815 	 7815 	 7816 	 1 
7816 	 7816 	 7817 	 1 
7817 	 7817 	 7818 	 1 
7818 	 7818 	 7819 	 1 
7819 	 7819 	 7820 	 1 
7820 	 7820 	 7821 	 1 
7821 	 7821 	 7822 	 1 
7822 	 7822 	 7823 	 1 
7823 	 7823 	 7824 	 1 
7824 	 7824 	 7825 	 1 
7825 	 7825 	 7826 	 1 
7826 	 7826 	 7827 	 1 
7827 	 7827 	 7828 	 1 
7828 	 7828 	 7829 	 1 
7829 	 7829 	 7830 	 1 
7830 	 7830 	 7831 	 1 
7831 	 7831 	 7832 	 1 
7832 	 7832 	 7833 	 1 
7833 	 7833 	 7834 	 1 
7834 	 7834 	 7835 	 1 
7835 	 7835 	 7836 	 1 
7836 	 7836 	 7837 	 1 
7837 	 7837 	 7838 	 1 
7838 	 7838 	 7839 	 1 
7839 	 7839 	 7840 	 1 
7840 	 7840 	 7841 	 1 
7841 	 7841 	 7842 	 1 
7842 	 7842 	 7843 	 1 
7843 	 7843 	 7844 	 1 
7844 	 7844 	 7845 	 1 
7845 	 7845 	 7846 	 1 
7846 	 7846 	 7847 	 1 
7847 	 7847 	 7848 	 1 
7848 	 7848 	 7849 	 1 
7849 	 7849 	 7850 	 1 
7850 	 7850 	 7851 	 1 
7851 	 7851 	 7852 	 1 
7852 	 7852 	 7853 	 1 
7853 	 7853 	 7854 	 1 
7854 	 7854 	 7855 	 1 
7855 	 7855 	 7856 	 1 
7856 	 7856 	 7857 	 1 
7857 	 7857 	 7858 	 1 
7858 	 7858 	 7859 	 1 
7859 	 7859 	 7860 	 1 
7860 	 7860 	 7861 	 1 
7861 	 7861 	 7862 	 1 
7862 	 7862 	 7863 	 1 
7863 	 7863 	 7864 	 1 
7864 	 7864 	 7865 	 1 
7865 	 7865 	 7866 	 1 
7866 	 7866 	 7867 	 1 
7867 	 7867 	 7868 	 1 
7868 	 7868 	 7869 	 1 
7869 	 7869 	 7870 	 1 
7870 	 7870 	 7871 	 1 
7871 	 7871 	 7872 	 1 
7872 	 7872 	 7873 	 1 
7873 	 7873 	 7874 	 1 
7874 	 7874 	 7875 	 1 
7875 	 7875 	 7876 	 1 
7876 	 7876 	 7877 	 1 
7877 	 7877 	 7878 	 1 
7878 	 7878 	 7879 	 1 
7879 	 7879 	 7880 	 1 
7880 	 7880 	 7881 	 1 
7881 	 7881 	 7882 	 1 
7882 	 7882 	 7883 	 1 
7883 	 7883 	 7884 	 1 
7884 	 7884 	 7885 	 1 
7885 	 7885 	 7886 	 1 
7886 	 7886 	 7887 	 1 
7887 	 7887 	 7888 	 1 
7888 	 7888 	 7889 	 1 
7889 	 7889 	 7890 	 1 
7890 	 7890 	 7891 	 1 
7891 	 7891 	 7892 	 1 
7892 	 7892 	 7893 	 1 
7893 	 7893 	 7894 	 1 
7894 	 7894 	 7895 	 1 
7895 	 7895 	 7896 	 1 
7896 	 7896 	 7897 	 1 
7897 	 7897 	 7898 	 1 
7898 	 7898 	 7899 	 1 
7899 	 7899 	 7900 	 1 
7900 	 7900 	 7901 	 1 
7901 	 7901 	 7902 	 1 
7902 	 7902 	 7903 	 1 
7903 	 7903 	 7904 	 1 
7904 	 7904 	 7905 	 1 
7905 	 7905 	 7906 	 1 
7906 	 7906 	 7907 	 1 
7907 	 7907 	 7908 	 1 
7908 	 7908 	 7909 	 1 
7909 	 7909 	 7910 	 1 
7910 	 7910 	 7911 	 1 
7911 	 7911 	 7912 	 1 
7912 	 7912 	 7913 	 1 
7913 	 7913 	 7914 	 1 
7914 	 7914 	 7915 	 1 
7915 	 7915 	 7916 	 1 
7916 	 7916 	 7917 	 1 
7917 	 7917 	 7918 	 1 
7918 	 7918 	 7919 	 1 
7919 	 7919 	 7920 	 1 
7920 	 7920 	 7921 	 1 
7921 	 7921 	 7922 	 1 
7922 	 7922 	 7923 	 1 
7923 	 7923 	 7924 	 1 
7924 	 7924 	 7925 	 1 
7925 	 7925 	 7926 	 1 
7926 	 7926 	 7927 	 1 
7927 	 7927 	 7928 	 1 
7928 	 7928 	 7929 	 1 
7929 	 7929 	 7930 	 1 
7930 	 7930 	 7931 	 1 
7931 	 7931 	 7932 	 1 
7932 	 7932 	 7933 	 1 
7933 	 7933 	 7934 	 1 
7934 	 7934 	 7935 	 1 
7935 	 7935 	 7936 	 1 
7936 	 7936 	 7937 	 1 
7937 	 7937 	 7938 	 1 
7938 	 7938 	 7939 	 1 
7939 	 7939 	 7940 	 1 
7940 	 7940 	 7941 	 1 
7941 	 7941 	 7942 	 1 
7942 	 7942 	 7943 	 1 
7943 	 7943 	 7944 	 1 
7944 	 7944 	 7945 	 1 
7945 	 7945 	 7946 	 1 
7946 	 7946 	 7947 	 1 
7947 	 7947 	 7948 	 1 
7948 	 7948 	 7949 	 1 
7949 	 7949 	 7950 	 1 
7950 	 7950 	 7951 	 1 
7951 	 7951 	 7952 	 1 
7952 	 7952 	 7953 	 1 
7953 	 7953 	 7954 	 1 
7954 	 7954 	 7955 	 1 
7955 	 7955 	 7956 	 1 
7956 	 7956 	 7957 	 1 
7957 	 7957 	 7958 	 1 
7958 	 7958 	 7959 	 1 
7959 	 7959 	 7960 	 1 
7960 	 7960 	 7961 	 1 
7961 	 7961 	 7962 	 1 
7962 	 7962 	 7963 	 1 
7963 	 7963 	 7964 	 1 
7964 	 7964 	 7965 	 1 
7965 	 7965 	 7966 	 1 
7966 	 7966 	 7967 	 1 
7967 	 7967 	 7968 	 1 
7968 	 7968 	 7969 	 1 
7969 	 7969 	 7970 	 1 
7970 	 7970 	 7971 	 1 
7971 	 7971 	 7972 	 1 
7972 	 7972 	 7973 	 1 
7973 	 7973 	 7974 	 1 
7974 	 7974 	 7975 	 1 
7975 	 7975 	 7976 	 1 
7976 	 7976 	 7977 	 1 
7977 	 7977 	 7978 	 1 
7978 	 7978 	 7979 	 1 
7979 	 7979 	 7980 	 1 
7980 	 7980 	 7981 	 1 
7981 	 7981 	 7982 	 1 
7982 	 7982 	 7983 	 1 
7983 	 7983 	 7984 	 1 
7984 	 7984 	 7985 	 1 
7985 	 7985 	 7986 	 1 
7986 	 7986 	 7987 	 1 
7987 	 7987 	 7988 	 1 
7988 	 7988 	 7989 	 1 
7989 	 7989 	 7990 	 1 
7990 	 7990 	 7991 	 1 
7991 	 7991 	 7992 	 1 
7992 	 7992 	 7993 	 1 
7993 	 7993 	 7994 	 1 
7994 	 7994 	 7995 	 1 
7995 	 7995 	 7996 	 1 
7996 	 7996 	 7997 	 1 
7997 	 7997 	 7998 	 1 
7998 	 7998 	 7999 	 1 
7999 	 7999 	 8000 	 1 
8000 	 8000 	 8001 	 1 
8001 	 8001 	 8002 	 1 
8002 	 8002 	 8003 	 1 
8003 	 8003 	 8004 	 1 
8004 	 8004 	 8005 	 1 
8005 	 8005 	 8006 	 1 
8006 	 8006 	 8007 	 1 
8007 	 8007 	 8008 	 1 
8008 	 8008 	 8009 	 1 
8009 	 8009 	 8010 	 1 
8010 	 8010 	 8011 	 1 
8011 	 8011 	 8012 	 1 
8012 	 8012 	 8013 	 1 
8013 	 8013 	 8014 	 1 
8014 	 8014 	 8015 	 1 
8015 	 8015 	 8016 	 1 
8016 	 8016 	 8017 	 1 
8017 	 8017 	 8018 	 1 
8018 	 8018 	 8019 	 1 
8019 	 8019 	 8020 	 1 
8020 	 8020 	 8021 	 1 
8021 	 8021 	 8022 	 1 
8022 	 8022 	 8023 	 1 
8023 	 8023 	 8024 	 1 
8024 	 8024 	 8025 	 1 
8025 	 8025 	 8026 	 1 
8026 	 8026 	 8027 	 1 
8027 	 8027 	 8028 	 1 
8028 	 8028 	 8029 	 1 
8029 	 8029 	 8030 	 1 
8030 	 8030 	 8031 	 1 
8031 	 8031 	 8032 	 1 
8032 	 8032 	 8033 	 1 
8033 	 8033 	 8034 	 1 
8034 	 8034 	 8035 	 1 
8035 	 8035 	 8036 	 1 
8036 	 8036 	 8037 	 1 
8037 	 8037 	 8038 	 1 
8038 	 8038 	 8039 	 1 
8039 	 8039 	 8040 	 1 
8040 	 8040 	 8041 	 1 
8041 	 8041 	 8042 	 1 
8042 	 8042 	 8043 	 1 
8043 	 8043 	 8044 	 1 
8044 	 8044 	 8045 	 1 
8045 	 8045 	 8046 	 1 
8046 	 8046 	 8047 	 1 
8047 	 8047 	 8048 	 1 
8048 	 8048 	 8049 	 1 
8049 	 8049 	 8050 	 1 
8050 	 8050 	 8051 	 1 
8051 	 8051 	 8052 	 1 
8052 	 8052 	 8053 	 1 
8053 	 8053 	 8054 	 1 
8054 	 8054 	 8055 	 1 
8055 	 8055 	 8056 	 1 
8056 	 8056 	 8057 	 1 
8057 	 8057 	 8058 	 1 
8058 	 8058 	 8059 	 1 
8059 	 8059 	 8060 	 1 
8060 	 8060 	 8061 	 1 
8061 	 8061 	 8062 	 1 
8062 	 8062 	 8063 	 1 
8063 	 8063 	 8064 	 1 
8064 	 8064 	 8065 	 1 
8065 	 8065 	 8066 	 1 
8066 	 8066 	 8067 	 1 
8067 	 8067 	 8068 	 1 
8068 	 8068 	 8069 	 1 
8069 	 8069 	 8070 	 1 
8070 	 8070 	 8071 	 1 
8071 	 8071 	 8072 	 1 
8072 	 8072 	 8073 	 1 
8073 	 8073 	 8074 	 1 
8074 	 8074 	 8075 	 1 
8075 	 8075 	 8076 	 1 
8076 	 8076 	 8077 	 1 
8077 	 8077 	 8078 	 1 
8078 	 8078 	 8079 	 1 
8079 	 8079 	 8080 	 1 
8080 	 8080 	 8081 	 1 
8081 	 8081 	 8082 	 1 
8082 	 8082 	 8083 	 1 
8083 	 8083 	 8084 	 1 
8084 	 8084 	 8085 	 1 
8085 	 8085 	 8086 	 1 
8086 	 8086 	 8087 	 1 
8087 	 8087 	 8088 	 1 
8088 	 8088 	 8089 	 1 
8089 	 8089 	 8090 	 1 
8090 	 8090 	 8091 	 1 
8091 	 8091 	 8092 	 1 
8092 	 8092 	 8093 	 1 
8093 	 8093 	 8094 	 1 
8094 	 8094 	 8095 	 1 
8095 	 8095 	 8096 	 1 
8096 	 8096 	 8097 	 1 
8097 	 8097 	 8098 	 1 
8098 	 8098 	 8099 	 1 
8099 	 8099 	 8100 	 1 
8100 	 8100 	 8101 	 1 
8101 	 8101 	 8102 	 1 
8102 	 8102 	 8103 	 1 
8103 	 8103 	 8104 	 1 
8104 	 8104 	 8105 	 1 
8105 	 8105 	 8106 	 1 
8106 	 8106 	 8107 	 1 
8107 	 8107 	 8108 	 1 
8108 	 8108 	 8109 	 1 
8109 	 8109 	 8110 	 1 
8110 	 8110 	 8111 	 1 
8111 	 8111 	 8112 	 1 
8112 	 8112 	 8113 	 1 
8113 	 8113 	 8114 	 1 
8114 	 8114 	 8115 	 1 
8115 	 8115 	 8116 	 1 
8116 	 8116 	 8117 	 1 
8117 	 8117 	 8118 	 1 
8118 	 8118 	 8119 	 1 
8119 	 8119 	 8120 	 1 
8120 	 8120 	 8121 	 1 
8121 	 8121 	 8122 	 1 
8122 	 8122 	 8123 	 1 
8123 	 8123 	 8124 	 1 
8124 	 8124 	 8125 	 1 
8125 	 8125 	 8126 	 1 
8126 	 8126 	 8127 	 1 
8127 	 8127 	 8128 	 1 
8128 	 8128 	 8129 	 1 
8129 	 8129 	 8130 	 1 
8130 	 8130 	 8131 	 1 
8131 	 8131 	 8132 	 1 
8132 	 8132 	 8133 	 1 
8133 	 8133 	 8134 	 1 
8134 	 8134 	 8135 	 1 
8135 	 8135 	 8136 	 1 
8136 	 8136 	 8137 	 1 
8137 	 8137 	 8138 	 1 
8138 	 8138 	 8139 	 1 
8139 	 8139 	 8140 	 1 
8140 	 8140 	 8141 	 1 
8141 	 8141 	 8142 	 1 
8142 	 8142 	 8143 	 1 
8143 	 8143 	 8144 	 1 
8144 	 8144 	 8145 	 1 
8145 	 8145 	 8146 	 1 
8146 	 8146 	 8147 	 1 
8147 	 8147 	 8148 	 1 
8148 	 8148 	 8149 	 1 
8149 	 8149 	 8150 	 1 
8150 	 8150 	 8151 	 1 
8151 	 8151 	 8152 	 1 
8152 	 8152 	 8153 	 1 
8153 	 8153 	 8154 	 1 
8154 	 8154 	 8155 	 1 
8155 	 8155 	 8156 	 1 
8156 	 8156 	 8157 	 1 
8157 	 8157 	 8158 	 1 
8158 	 8158 	 8159 	 1 
8159 	 8159 	 8160 	 1 
8160 	 8160 	 8161 	 1 
8161 	 8161 	 8162 	 1 
8162 	 8162 	 8163 	 1 
8163 	 8163 	 8164 	 1 
8164 	 8164 	 8165 	 1 
8165 	 8165 	 8166 	 1 
8166 	 8166 	 8167 	 1 
8167 	 8167 	 8168 	 1 
8168 	 8168 	 8169 	 1 
8169 	 8169 	 8170 	 1 
8170 	 8170 	 8171 	 1 
8171 	 8171 	 8172 	 1 
8172 	 8172 	 8173 	 1 
8173 	 8173 	 8174 	 1 
8174 	 8174 	 8175 	 1 
8175 	 8175 	 8176 	 1 
8176 	 8176 	 8177 	 1 
8177 	 8177 	 8178 	 1 
8178 	 8178 	 8179 	 1 
8179 	 8179 	 8180 	 1 
8180 	 8180 	 8181 	 1 
8181 	 8181 	 8182 	 1 
8182 	 8182 	 8183 	 1 
8183 	 8183 	 8184 	 1 
8184 	 8184 	 8185 	 1 
8185 	 8185 	 8186 	 1 
8186 	 8186 	 8187 	 1 
8187 	 8187 	 8188 	 1 
8188 	 8188 	 8189 	 1 
8189 	 8189 	 8190 	 1 
8190 	 8190 	 8191 	 1 
8191 	 8191 	 8192 	 1 
8192 	 8192 	 8193 	 1 
8193 	 8193 	 8194 	 1 
8194 	 8194 	 8195 	 1 
8195 	 8195 	 8196 	 1 
8196 	 8196 	 8197 	 1 
8197 	 8197 	 8198 	 1 
8198 	 8198 	 8199 	 1 
8199 	 8199 	 8200 	 1 
8200 	 8200 	 8201 	 1 
8201 	 8201 	 8202 	 1 
8202 	 8202 	 8203 	 1 
8203 	 8203 	 8204 	 1 
8204 	 8204 	 8205 	 1 
8205 	 8205 	 8206 	 1 
8206 	 8206 	 8207 	 1 
8207 	 8207 	 8208 	 1 
8208 	 8208 	 8209 	 1 
8209 	 8209 	 8210 	 1 
8210 	 8210 	 8211 	 1 
8211 	 8211 	 8212 	 1 
8212 	 8212 	 8213 	 1 
8213 	 8213 	 8214 	 1 
8214 	 8214 	 8215 	 1 
8215 	 8215 	 8216 	 1 
8216 	 8216 	 8217 	 1 
8217 	 8217 	 8218 	 1 
8218 	 8218 	 8219 	 1 
8219 	 8219 	 8220 	 1 
8220 	 8220 	 8221 	 1 
8221 	 8221 	 8222 	 1 
8222 	 8222 	 8223 	 1 
8223 	 8223 	 8224 	 1 
8224 	 8224 	 8225 	 1 
8225 	 8225 	 8226 	 1 
8226 	 8226 	 8227 	 1 
8227 	 8227 	 8228 	 1 
8228 	 8228 	 8229 	 1 
8229 	 8229 	 8230 	 1 
8230 	 8230 	 8231 	 1 
8231 	 8231 	 8232 	 1 
8232 	 8232 	 8233 	 1 
8233 	 8233 	 8234 	 1 
8234 	 8234 	 8235 	 1 
8235 	 8235 	 8236 	 1 
8236 	 8236 	 8237 	 1 
8237 	 8237 	 8238 	 1 
8238 	 8238 	 8239 	 1 
8239 	 8239 	 8240 	 1 
8240 	 8240 	 8241 	 1 
8241 	 8241 	 8242 	 1 
8242 	 8242 	 8243 	 1 
8243 	 8243 	 8244 	 1 
8244 	 8244 	 8245 	 1 
8245 	 8245 	 8246 	 1 
8246 	 8246 	 8247 	 1 
8247 	 8247 	 8248 	 1 
8248 	 8248 	 8249 	 1 
8249 	 8249 	 8250 	 1 
8250 	 8250 	 8251 	 1 
8251 	 8251 	 8252 	 1 
8252 	 8252 	 8253 	 1 
8253 	 8253 	 8254 	 1 
8254 	 8254 	 8255 	 1 
8255 	 8255 	 8256 	 1 
8256 	 8256 	 8257 	 1 
8257 	 8257 	 8258 	 1 
8258 	 8258 	 8259 	 1 
8259 	 8259 	 8260 	 1 
8260 	 8260 	 8261 	 1 
8261 	 8261 	 8262 	 1 
8262 	 8262 	 8263 	 1 
8263 	 8263 	 8264 	 1 
8264 	 8264 	 8265 	 1 
8265 	 8265 	 8266 	 1 
8266 	 8266 	 8267 	 1 
8267 	 8267 	 8268 	 1 
8268 	 8268 	 8269 	 1 
8269 	 8269 	 8270 	 1 
8270 	 8270 	 8271 	 1 
8271 	 8271 	 8272 	 1 
8272 	 8272 	 8273 	 1 
8273 	 8273 	 8274 	 1 
8274 	 8274 	 8275 	 1 
8275 	 8275 	 8276 	 1 
8276 	 8276 	 8277 	 1 
8277 	 8277 	 8278 	 1 
8278 	 8278 	 8279 	 1 
8279 	 8279 	 8280 	 1 
8280 	 8280 	 8281 	 1 
8281 	 8281 	 8282 	 1 
8282 	 8282 	 8283 	 1 
8283 	 8283 	 8284 	 1 
8284 	 8284 	 8285 	 1 
8285 	 8285 	 8286 	 1 
8286 	 8286 	 8287 	 1 
8287 	 8287 	 8288 	 1 
8288 	 8288 	 8289 	 1 
8289 	 8289 	 8290 	 1 
8290 	 8290 	 8291 	 1 
8291 	 8291 	 8292 	 1 
8292 	 8292 	 8293 	 1 
8293 	 8293 	 8294 	 1 
8294 	 8294 	 8295 	 1 
8295 	 8295 	 8296 	 1 
8296 	 8296 	 8297 	 1 
8297 	 8297 	 8298 	 1 
8298 	 8298 	 8299 	 1 
8299 	 8299 	 8300 	 1 
8300 	 8300 	 8301 	 1 
8301 	 8301 	 8302 	 1 
8302 	 8302 	 8303 	 1 
8303 	 8303 	 8304 	 1 
8304 	 8304 	 8305 	 1 
8305 	 8305 	 8306 	 1 
8306 	 8306 	 8307 	 1 
8307 	 8307 	 8308 	 1 
8308 	 8308 	 8309 	 1 
8309 	 8309 	 8310 	 1 
8310 	 8310 	 8311 	 1 
8311 	 8311 	 8312 	 1 
8312 	 8312 	 8313 	 1 
8313 	 8313 	 8314 	 1 
8314 	 8314 	 8315 	 1 
8315 	 8315 	 8316 	 1 
8316 	 8316 	 8317 	 1 
8317 	 8317 	 8318 	 1 
8318 	 8318 	 8319 	 1 
8319 	 8319 	 8320 	 1 
8320 	 8320 	 8321 	 1 
8321 	 8321 	 8322 	 1 
8322 	 8322 	 8323 	 1 
8323 	 8323 	 8324 	 1 
8324 	 8324 	 8325 	 1 
8325 	 8325 	 8326 	 1 
8326 	 8326 	 8327 	 1 
8327 	 8327 	 8328 	 1 
8328 	 8328 	 8329 	 1 
8329 	 8329 	 8330 	 1 
8330 	 8330 	 8331 	 1 
8331 	 8331 	 8332 	 1 
8332 	 8332 	 8333 	 1 
8333 	 8333 	 8334 	 1 
8334 	 8334 	 8335 	 1 
8335 	 8335 	 8336 	 1 
8336 	 8336 	 8337 	 1 
8337 	 8337 	 8338 	 1 
8338 	 8338 	 8339 	 1 
8339 	 8339 	 8340 	 1 
8340 	 8340 	 8341 	 1 
8341 	 8341 	 8342 	 1 
8342 	 8342 	 8343 	 1 
8343 	 8343 	 8344 	 1 
8344 	 8344 	 8345 	 1 
8345 	 8345 	 8346 	 1 
8346 	 8346 	 8347 	 1 
8347 	 8347 	 8348 	 1 
8348 	 8348 	 8349 	 1 
8349 	 8349 	 8350 	 1 
8350 	 8350 	 8351 	 1 
8351 	 8351 	 8352 	 1 
8352 	 8352 	 8353 	 1 
8353 	 8353 	 8354 	 1 
8354 	 8354 	 8355 	 1 
8355 	 8355 	 8356 	 1 
8356 	 8356 	 8357 	 1 
8357 	 8357 	 8358 	 1 
8358 	 8358 	 8359 	 1 
8359 	 8359 	 8360 	 1 
8360 	 8360 	 8361 	 1 
8361 	 8361 	 8362 	 1 
8362 	 8362 	 8363 	 1 
8363 	 8363 	 8364 	 1 
8364 	 8364 	 8365 	 1 
8365 	 8365 	 8366 	 1 
8366 	 8366 	 8367 	 1 
8367 	 8367 	 8368 	 1 
8368 	 8368 	 8369 	 1 
8369 	 8369 	 8370 	 1 
8370 	 8370 	 8371 	 1 
8371 	 8371 	 8372 	 1 
8372 	 8372 	 8373 	 1 
8373 	 8373 	 8374 	 1 
8374 	 8374 	 8375 	 1 
8375 	 8375 	 8376 	 1 
8376 	 8376 	 8377 	 1 
8377 	 8377 	 8378 	 1 
8378 	 8378 	 8379 	 1 
8379 	 8379 	 8380 	 1 
8380 	 8380 	 8381 	 1 
8381 	 8381 	 8382 	 1 
8382 	 8382 	 8383 	 1 
8383 	 8383 	 8384 	 1 
8384 	 8384 	 8385 	 1 
8385 	 8385 	 8386 	 1 
8386 	 8386 	 8387 	 1 
8387 	 8387 	 8388 	 1 
8388 	 8388 	 8389 	 1 
8389 	 8389 	 8390 	 1 
8390 	 8390 	 8391 	 1 
8391 	 8391 	 8392 	 1 
8392 	 8392 	 8393 	 1 
8393 	 8393 	 8394 	 1 
8394 	 8394 	 8395 	 1 
8395 	 8395 	 8396 	 1 
8396 	 8396 	 8397 	 1 
8397 	 8397 	 8398 	 1 
8398 	 8398 	 8399 	 1 
8399 	 8399 	 8400 	 1 
8400 	 8400 	 8401 	 1 
8401 	 8401 	 8402 	 1 
8402 	 8402 	 8403 	 1 
8403 	 8403 	 8404 	 1 
8404 	 8404 	 8405 	 1 
8405 	 8405 	 8406 	 1 
8406 	 8406 	 8407 	 1 
8407 	 8407 	 8408 	 1 
8408 	 8408 	 8409 	 1 
8409 	 8409 	 8410 	 1 
8410 	 8410 	 8411 	 1 
8411 	 8411 	 8412 	 1 
8412 	 8412 	 8413 	 1 
8413 	 8413 	 8414 	 1 
8414 	 8414 	 8415 	 1 
8415 	 8415 	 8416 	 1 
8416 	 8416 	 8417 	 1 
8417 	 8417 	 8418 	 1 
8418 	 8418 	 8419 	 1 
8419 	 8419 	 8420 	 1 
8420 	 8420 	 8421 	 1 
8421 	 8421 	 8422 	 1 
8422 	 8422 	 8423 	 1 
8423 	 8423 	 8424 	 1 
8424 	 8424 	 8425 	 1 
8425 	 8425 	 8426 	 1 
8426 	 8426 	 8427 	 1 
8427 	 8427 	 8428 	 1 
8428 	 8428 	 8429 	 1 
8429 	 8429 	 8430 	 1 
8430 	 8430 	 8431 	 1 
8431 	 8431 	 8432 	 1 
8432 	 8432 	 8433 	 1 
8433 	 8433 	 8434 	 1 
8434 	 8434 	 8435 	 1 
8435 	 8435 	 8436 	 1 
8436 	 8436 	 8437 	 1 
8437 	 8437 	 8438 	 1 
8438 	 8438 	 8439 	 1 
8439 	 8439 	 8440 	 1 
8440 	 8440 	 8441 	 1 
8441 	 8441 	 8442 	 1 
8442 	 8442 	 8443 	 1 
8443 	 8443 	 8444 	 1 
8444 	 8444 	 8445 	 1 
8445 	 8445 	 8446 	 1 
8446 	 8446 	 8447 	 1 
8447 	 8447 	 8448 	 1 
8448 	 8448 	 8449 	 1 
8449 	 8449 	 8450 	 1 
8450 	 8450 	 8451 	 1 
8451 	 8451 	 8452 	 1 
8452 	 8452 	 8453 	 1 
8453 	 8453 	 8454 	 1 
8454 	 8454 	 8455 	 1 
8455 	 8455 	 8456 	 1 
8456 	 8456 	 8457 	 1 
8457 	 8457 	 8458 	 1 
8458 	 8458 	 8459 	 1 
8459 	 8459 	 8460 	 1 
8460 	 8460 	 8461 	 1 
8461 	 8461 	 8462 	 1 
8462 	 8462 	 8463 	 1 
8463 	 8463 	 8464 	 1 
8464 	 8464 	 8465 	 1 
8465 	 8465 	 8466 	 1 
8466 	 8466 	 8467 	 1 
8467 	 8467 	 8468 	 1 
8468 	 8468 	 8469 	 1 
8469 	 8469 	 8470 	 1 
8470 	 8470 	 8471 	 1 
8471 	 8471 	 8472 	 1 
8472 	 8472 	 8473 	 1 
8473 	 8473 	 8474 	 1 
8474 	 8474 	 8475 	 1 
8475 	 8475 	 8476 	 1 
8476 	 8476 	 8477 	 1 
8477 	 8477 	 8478 	 1 
8478 	 8478 	 8479 	 1 
8479 	 8479 	 8480 	 1 
8480 	 8480 	 8481 	 1 
8481 	 8481 	 8482 	 1 
8482 	 8482 	 8483 	 1 
8483 	 8483 	 8484 	 1 
8484 	 8484 	 8485 	 1 
8485 	 8485 	 8486 	 1 
8486 	 8486 	 8487 	 1 
8487 	 8487 	 8488 	 1 
8488 	 8488 	 8489 	 1 
8489 	 8489 	 8490 	 1 
8490 	 8490 	 8491 	 1 
8491 	 8491 	 8492 	 1 
8492 	 8492 	 8493 	 1 
8493 	 8493 	 8494 	 1 
8494 	 8494 	 8495 	 1 
8495 	 8495 	 8496 	 1 
8496 	 8496 	 8497 	 1 
8497 	 8497 	 8498 	 1 
8498 	 8498 	 8499 	 1 
8499 	 8499 	 8500 	 1 
8500 	 8500 	 8501 	 1 
8501 	 8501 	 8502 	 1 
8502 	 8502 	 8503 	 1 
8503 	 8503 	 8504 	 1 
8504 	 8504 	 8505 	 1 
8505 	 8505 	 8506 	 1 
8506 	 8506 	 8507 	 1 
8507 	 8507 	 8508 	 1 
8508 	 8508 	 8509 	 1 
8509 	 8509 	 8510 	 1 
8510 	 8510 	 8511 	 1 
8511 	 8511 	 8512 	 1 
8512 	 8512 	 8513 	 1 
8513 	 8513 	 8514 	 1 
8514 	 8514 	 8515 	 1 
8515 	 8515 	 8516 	 1 
8516 	 8516 	 8517 	 1 
8517 	 8517 	 8518 	 1 
8518 	 8518 	 8519 	 1 
8519 	 8519 	 8520 	 1 
8520 	 8520 	 8521 	 1 
8521 	 8521 	 8522 	 1 
8522 	 8522 	 8523 	 1 
8523 	 8523 	 8524 	 1 
8524 	 8524 	 8525 	 1 
8525 	 8525 	 8526 	 1 
8526 	 8526 	 8527 	 1 
8527 	 8527 	 8528 	 1 
8528 	 8528 	 8529 	 1 
8529 	 8529 	 8530 	 1 
8530 	 8530 	 8531 	 1 
8531 	 8531 	 8532 	 1 
8532 	 8532 	 8533 	 1 
8533 	 8533 	 8534 	 1 
8534 	 8534 	 8535 	 1 
8535 	 8535 	 8536 	 1 
8536 	 8536 	 8537 	 1 
8537 	 8537 	 8538 	 1 
8538 	 8538 	 8539 	 1 
8539 	 8539 	 8540 	 1 
8540 	 8540 	 8541 	 1 
8541 	 8541 	 8542 	 1 
8542 	 8542 	 8543 	 1 
8543 	 8543 	 8544 	 1 
8544 	 8544 	 8545 	 1 
8545 	 8545 	 8546 	 1 
8546 	 8546 	 8547 	 1 
8547 	 8547 	 8548 	 1 
8548 	 8548 	 8549 	 1 
8549 	 8549 	 8550 	 1 
8550 	 8550 	 8551 	 1 
8551 	 8551 	 8552 	 1 
8552 	 8552 	 8553 	 1 
8553 	 8553 	 8554 	 1 
8554 	 8554 	 8555 	 1 
8555 	 8555 	 8556 	 1 
8556 	 8556 	 8557 	 1 
8557 	 8557 	 8558 	 1 
8558 	 8558 	 8559 	 1 
8559 	 8559 	 8560 	 1 
8560 	 8560 	 8561 	 1 
8561 	 8561 	 8562 	 1 
8562 	 8562 	 8563 	 1 
8563 	 8563 	 8564 	 1 
8564 	 8564 	 8565 	 1 
8565 	 8565 	 8566 	 1 
8566 	 8566 	 8567 	 1 
8567 	 8567 	 8568 	 1 
8568 	 8568 	 8569 	 1 
8569 	 8569 	 8570 	 1 
8570 	 8570 	 8571 	 1 
8571 	 8571 	 8572 	 1 
8572 	 8572 	 8573 	 1 
8573 	 8573 	 8574 	 1 
8574 	 8574 	 8575 	 1 
8575 	 8575 	 8576 	 1 
8576 	 8576 	 8577 	 1 
8577 	 8577 	 8578 	 1 
8578 	 8578 	 8579 	 1 
8579 	 8579 	 8580 	 1 
8580 	 8580 	 8581 	 1 
8581 	 8581 	 8582 	 1 
8582 	 8582 	 8583 	 1 
8583 	 8583 	 8584 	 1 
8584 	 8584 	 8585 	 1 
8585 	 8585 	 8586 	 1 
8586 	 8586 	 8587 	 1 
8587 	 8587 	 8588 	 1 
8588 	 8588 	 8589 	 1 
8589 	 8589 	 8590 	 1 
8590 	 8590 	 8591 	 1 
8591 	 8591 	 8592 	 1 
8592 	 8592 	 8593 	 1 
8593 	 8593 	 8594 	 1 
8594 	 8594 	 8595 	 1 
8595 	 8595 	 8596 	 1 
8596 	 8596 	 8597 	 1 
8597 	 8597 	 8598 	 1 
8598 	 8598 	 8599 	 1 
8599 	 8599 	 8600 	 1 
8600 	 8600 	 8601 	 1 
8601 	 8601 	 8602 	 1 
8602 	 8602 	 8603 	 1 
8603 	 8603 	 8604 	 1 
8604 	 8604 	 8605 	 1 
8605 	 8605 	 8606 	 1 
8606 	 8606 	 8607 	 1 
8607 	 8607 	 8608 	 1 
8608 	 8608 	 8609 	 1 
8609 	 8609 	 8610 	 1 
8610 	 8610 	 8611 	 1 
8611 	 8611 	 8612 	 1 
8612 	 8612 	 8613 	 1 
8613 	 8613 	 8614 	 1 
8614 	 8614 	 8615 	 1 
8615 	 8615 	 8616 	 1 
8616 	 8616 	 8617 	 1 
8617 	 8617 	 8618 	 1 
8618 	 8618 	 8619 	 1 
8619 	 8619 	 8620 	 1 
8620 	 8620 	 8621 	 1 
8621 	 8621 	 8622 	 1 
8622 	 8622 	 8623 	 1 
8623 	 8623 	 8624 	 1 
8624 	 8624 	 8625 	 1 
8625 	 8625 	 8626 	 1 
8626 	 8626 	 8627 	 1 
8627 	 8627 	 8628 	 1 
8628 	 8628 	 8629 	 1 
8629 	 8629 	 8630 	 1 
8630 	 8630 	 8631 	 1 
8631 	 8631 	 8632 	 1 
8632 	 8632 	 8633 	 1 
8633 	 8633 	 8634 	 1 
8634 	 8634 	 8635 	 1 
8635 	 8635 	 8636 	 1 
8636 	 8636 	 8637 	 1 
8637 	 8637 	 8638 	 1 
8638 	 8638 	 8639 	 1 
8639 	 8639 	 8640 	 1 
8640 	 8640 	 8641 	 1 
8641 	 8641 	 8642 	 1 
8642 	 8642 	 8643 	 1 
8643 	 8643 	 8644 	 1 
8644 	 8644 	 8645 	 1 
8645 	 8645 	 8646 	 1 
8646 	 8646 	 8647 	 1 
8647 	 8647 	 8648 	 1 
8648 	 8648 	 8649 	 1 
8649 	 8649 	 8650 	 1 
8650 	 8650 	 8651 	 1 
8651 	 8651 	 8652 	 1 
8652 	 8652 	 8653 	 1 
8653 	 8653 	 8654 	 1 
8654 	 8654 	 8655 	 1 
8655 	 8655 	 8656 	 1 
8656 	 8656 	 8657 	 1 
8657 	 8657 	 8658 	 1 
8658 	 8658 	 8659 	 1 
8659 	 8659 	 8660 	 1 
8660 	 8660 	 8661 	 1 
8661 	 8661 	 8662 	 1 
8662 	 8662 	 8663 	 1 
8663 	 8663 	 8664 	 1 
8664 	 8664 	 8665 	 1 
8665 	 8665 	 8666 	 1 
8666 	 8666 	 8667 	 1 
8667 	 8667 	 8668 	 1 
8668 	 8668 	 8669 	 1 
8669 	 8669 	 8670 	 1 
8670 	 8670 	 8671 	 1 
8671 	 8671 	 8672 	 1 
8672 	 8672 	 8673 	 1 
8673 	 8673 	 8674 	 1 
8674 	 8674 	 8675 	 1 
8675 	 8675 	 8676 	 1 
8676 	 8676 	 8677 	 1 
8677 	 8677 	 8678 	 1 
8678 	 8678 	 8679 	 1 
8679 	 8679 	 8680 	 1 
8680 	 8680 	 8681 	 1 
8681 	 8681 	 8682 	 1 
8682 	 8682 	 8683 	 1 
8683 	 8683 	 8684 	 1 
8684 	 8684 	 8685 	 1 
8685 	 8685 	 8686 	 1 
8686 	 8686 	 8687 	 1 
8687 	 8687 	 8688 	 1 
8688 	 8688 	 8689 	 1 
8689 	 8689 	 8690 	 1 
8690 	 8690 	 8691 	 1 
8691 	 8691 	 8692 	 1 
8692 	 8692 	 8693 	 1 
8693 	 8693 	 8694 	 1 
8694 	 8694 	 8695 	 1 
8695 	 8695 	 8696 	 1 
8696 	 8696 	 8697 	 1 
8697 	 8697 	 8698 	 1 
8698 	 8698 	 8699 	 1 
8699 	 8699 	 8700 	 1 
8700 	 8700 	 8701 	 1 
8701 	 8701 	 8702 	 1 
8702 	 8702 	 8703 	 1 
8703 	 8703 	 8704 	 1 
8704 	 8704 	 8705 	 1 
8705 	 8705 	 8706 	 1 
8706 	 8706 	 8707 	 1 
8707 	 8707 	 8708 	 1 
8708 	 8708 	 8709 	 1 
8709 	 8709 	 8710 	 1 
8710 	 8710 	 8711 	 1 
8711 	 8711 	 8712 	 1 
8712 	 8712 	 8713 	 1 
8713 	 8713 	 8714 	 1 
8714 	 8714 	 8715 	 1 
8715 	 8715 	 8716 	 1 
8716 	 8716 	 8717 	 1 
8717 	 8717 	 8718 	 1 
8718 	 8718 	 8719 	 1 
8719 	 8719 	 8720 	 1 
8720 	 8720 	 8721 	 1 
8721 	 8721 	 8722 	 1 
8722 	 8722 	 8723 	 1 
8723 	 8723 	 8724 	 1 
8724 	 8724 	 8725 	 1 
8725 	 8725 	 8726 	 1 
8726 	 8726 	 8727 	 1 
8727 	 8727 	 8728 	 1 
8728 	 8728 	 8729 	 1 
8729 	 8729 	 8730 	 1 
8730 	 8730 	 8731 	 1 
8731 	 8731 	 8732 	 1 
8732 	 8732 	 8733 	 1 
8733 	 8733 	 8734 	 1 
8734 	 8734 	 8735 	 1 
8735 	 8735 	 8736 	 1 
8736 	 8736 	 8737 	 1 
8737 	 8737 	 8738 	 1 
8738 	 8738 	 8739 	 1 
8739 	 8739 	 8740 	 1 
8740 	 8740 	 8741 	 1 
8741 	 8741 	 8742 	 1 
8742 	 8742 	 8743 	 1 
8743 	 8743 	 8744 	 1 
8744 	 8744 	 8745 	 1 
8745 	 8745 	 8746 	 1 
8746 	 8746 	 8747 	 1 
8747 	 8747 	 8748 	 1 
8748 	 8748 	 8749 	 1 
8749 	 8749 	 8750 	 1 
8750 	 8750 	 8751 	 1 
8751 	 8751 	 8752 	 1 
8752 	 8752 	 8753 	 1 
8753 	 8753 	 8754 	 1 
8754 	 8754 	 8755 	 1 
8755 	 8755 	 8756 	 1 
8756 	 8756 	 8757 	 1 
8757 	 8757 	 8758 	 1 
8758 	 8758 	 8759 	 1 
8759 	 8759 	 8760 	 1 
8760 	 8760 	 8761 	 1 
8761 	 8761 	 8762 	 1 
8762 	 8762 	 8763 	 1 
8763 	 8763 	 8764 	 1 
8764 	 8764 	 8765 	 1 
8765 	 8765 	 8766 	 1 
8766 	 8766 	 8767 	 1 
8767 	 8767 	 8768 	 1 
8768 	 8768 	 8769 	 1 
8769 	 8769 	 8770 	 1 
8770 	 8770 	 8771 	 1 
8771 	 8771 	 8772 	 1 
8772 	 8772 	 8773 	 1 
8773 	 8773 	 8774 	 1 
8774 	 8774 	 8775 	 1 
8775 	 8775 	 8776 	 1 
8776 	 8776 	 8777 	 1 
8777 	 8777 	 8778 	 1 
8778 	 8778 	 8779 	 1 
8779 	 8779 	 8780 	 1 
8780 	 8780 	 8781 	 1 
8781 	 8781 	 8782 	 1 
8782 	 8782 	 8783 	 1 
8783 	 8783 	 8784 	 1 
8784 	 8784 	 8785 	 1 
8785 	 8785 	 8786 	 1 
8786 	 8786 	 8787 	 1 
8787 	 8787 	 8788 	 1 
8788 	 8788 	 8789 	 1 
8789 	 8789 	 8790 	 1 
8790 	 8790 	 8791 	 1 
8791 	 8791 	 8792 	 1 
8792 	 8792 	 8793 	 1 
8793 	 8793 	 8794 	 1 
8794 	 8794 	 8795 	 1 
8795 	 8795 	 8796 	 1 
8796 	 8796 	 8797 	 1 
8797 	 8797 	 8798 	 1 
8798 	 8798 	 8799 	 1 
8799 	 8799 	 8800 	 1 
8800 	 8800 	 8801 	 1 
8801 	 8801 	 8802 	 1 
8802 	 8802 	 8803 	 1 
8803 	 8803 	 8804 	 1 
8804 	 8804 	 8805 	 1 
8805 	 8805 	 8806 	 1 
8806 	 8806 	 8807 	 1 
8807 	 8807 	 8808 	 1 
8808 	 8808 	 8809 	 1 
8809 	 8809 	 8810 	 1 
8810 	 8810 	 8811 	 1 
8811 	 8811 	 8812 	 1 
8812 	 8812 	 8813 	 1 
8813 	 8813 	 8814 	 1 
8814 	 8814 	 8815 	 1 
8815 	 8815 	 8816 	 1 
8816 	 8816 	 8817 	 1 
8817 	 8817 	 8818 	 1 
8818 	 8818 	 8819 	 1 
8819 	 8819 	 8820 	 1 
8820 	 8820 	 8821 	 1 
8821 	 8821 	 8822 	 1 
8822 	 8822 	 8823 	 1 
8823 	 8823 	 8824 	 1 
8824 	 8824 	 8825 	 1 
8825 	 8825 	 8826 	 1 
8826 	 8826 	 8827 	 1 
8827 	 8827 	 8828 	 1 
8828 	 8828 	 8829 	 1 
8829 	 8829 	 8830 	 1 
8830 	 8830 	 8831 	 1 
8831 	 8831 	 8832 	 1 
8832 	 8832 	 8833 	 1 
8833 	 8833 	 8834 	 1 
8834 	 8834 	 8835 	 1 
8835 	 8835 	 8836 	 1 
8836 	 8836 	 8837 	 1 
8837 	 8837 	 8838 	 1 
8838 	 8838 	 8839 	 1 
8839 	 8839 	 8840 	 1 
8840 	 8840 	 8841 	 1 
8841 	 8841 	 8842 	 1 
8842 	 8842 	 8843 	 1 
8843 	 8843 	 8844 	 1 
8844 	 8844 	 8845 	 1 
8845 	 8845 	 8846 	 1 
8846 	 8846 	 8847 	 1 
8847 	 8847 	 8848 	 1 
8848 	 8848 	 8849 	 1 
8849 	 8849 	 8850 	 1 
8850 	 8850 	 8851 	 1 
8851 	 8851 	 8852 	 1 
8852 	 8852 	 8853 	 1 
8853 	 8853 	 8854 	 1 
8854 	 8854 	 8855 	 1 
8855 	 8855 	 8856 	 1 
8856 	 8856 	 8857 	 1 
8857 	 8857 	 8858 	 1 
8858 	 8858 	 8859 	 1 
8859 	 8859 	 8860 	 1 
8860 	 8860 	 8861 	 1 
8861 	 8861 	 8862 	 1 
8862 	 8862 	 8863 	 1 
8863 	 8863 	 8864 	 1 
8864 	 8864 	 8865 	 1 
8865 	 8865 	 8866 	 1 
8866 	 8866 	 8867 	 1 
8867 	 8867 	 8868 	 1 
8868 	 8868 	 8869 	 1 
8869 	 8869 	 8870 	 1 
8870 	 8870 	 8871 	 1 
8871 	 8871 	 8872 	 1 
8872 	 8872 	 8873 	 1 
8873 	 8873 	 8874 	 1 
8874 	 8874 	 8875 	 1 
8875 	 8875 	 8876 	 1 
8876 	 8876 	 8877 	 1 
8877 	 8877 	 8878 	 1 
8878 	 8878 	 8879 	 1 
8879 	 8879 	 8880 	 1 
8880 	 8880 	 8881 	 1 
8881 	 8881 	 8882 	 1 
8882 	 8882 	 8883 	 1 
8883 	 8883 	 8884 	 1 
8884 	 8884 	 8885 	 1 
8885 	 8885 	 8886 	 1 
8886 	 8886 	 8887 	 1 
8887 	 8887 	 8888 	 1 
8888 	 8888 	 8889 	 1 
8889 	 8889 	 8890 	 1 
8890 	 8890 	 8891 	 1 
8891 	 8891 	 8892 	 1 
8892 	 8892 	 8893 	 1 
8893 	 8893 	 8894 	 1 
8894 	 8894 	 8895 	 1 
8895 	 8895 	 8896 	 1 
8896 	 8896 	 8897 	 1 
8897 	 8897 	 8898 	 1 
8898 	 8898 	 8899 	 1 
8899 	 8899 	 8900 	 1 
8900 	 8900 	 8901 	 1 
8901 	 8901 	 8902 	 1 
8902 	 8902 	 8903 	 1 
8903 	 8903 	 8904 	 1 
8904 	 8904 	 8905 	 1 
8905 	 8905 	 8906 	 1 
8906 	 8906 	 8907 	 1 
8907 	 8907 	 8908 	 1 
8908 	 8908 	 8909 	 1 
8909 	 8909 	 8910 	 1 
8910 	 8910 	 8911 	 1 
8911 	 8911 	 8912 	 1 
8912 	 8912 	 8913 	 1 
8913 	 8913 	 8914 	 1 
8914 	 8914 	 8915 	 1 
8915 	 8915 	 8916 	 1 
8916 	 8916 	 8917 	 1 
8917 	 8917 	 8918 	 1 
8918 	 8918 	 8919 	 1 
8919 	 8919 	 8920 	 1 
8920 	 8920 	 8921 	 1 
8921 	 8921 	 8922 	 1 
8922 	 8922 	 8923 	 1 
8923 	 8923 	 8924 	 1 
8924 	 8924 	 8925 	 1 
8925 	 8925 	 8926 	 1 
8926 	 8926 	 8927 	 1 
8927 	 8927 	 8928 	 1 
8928 	 8928 	 8929 	 1 
8929 	 8929 	 8930 	 1 
8930 	 8930 	 8931 	 1 
8931 	 8931 	 8932 	 1 
8932 	 8932 	 8933 	 1 
8933 	 8933 	 8934 	 1 
8934 	 8934 	 8935 	 1 
8935 	 8935 	 8936 	 1 
8936 	 8936 	 8937 	 1 
8937 	 8937 	 8938 	 1 
8938 	 8938 	 8939 	 1 
8939 	 8939 	 8940 	 1 
8940 	 8940 	 8941 	 1 
8941 	 8941 	 8942 	 1 
8942 	 8942 	 8943 	 1 
8943 	 8943 	 8944 	 1 
8944 	 8944 	 8945 	 1 
8945 	 8945 	 8946 	 1 
8946 	 8946 	 8947 	 1 
8947 	 8947 	 8948 	 1 
8948 	 8948 	 8949 	 1 
8949 	 8949 	 8950 	 1 
8950 	 8950 	 8951 	 1 
8951 	 8951 	 8952 	 1 
8952 	 8952 	 8953 	 1 
8953 	 8953 	 8954 	 1 
8954 	 8954 	 8955 	 1 
8955 	 8955 	 8956 	 1 
8956 	 8956 	 8957 	 1 
8957 	 8957 	 8958 	 1 
8958 	 8958 	 8959 	 1 
8959 	 8959 	 8960 	 1 
8960 	 8960 	 8961 	 1 
8961 	 8961 	 8962 	 1 
8962 	 8962 	 8963 	 1 
8963 	 8963 	 8964 	 1 
8964 	 8964 	 8965 	 1 
8965 	 8965 	 8966 	 1 
8966 	 8966 	 8967 	 1 
8967 	 8967 	 8968 	 1 
8968 	 8968 	 8969 	 1 
8969 	 8969 	 8970 	 1 
8970 	 8970 	 8971 	 1 
8971 	 8971 	 8972 	 1 
8972 	 8972 	 8973 	 1 
8973 	 8973 	 8974 	 1 
8974 	 8974 	 8975 	 1 
8975 	 8975 	 8976 	 1 
8976 	 8976 	 8977 	 1 
8977 	 8977 	 8978 	 1 
8978 	 8978 	 8979 	 1 
8979 	 8979 	 8980 	 1 
8980 	 8980 	 8981 	 1 
8981 	 8981 	 8982 	 1 
8982 	 8982 	 8983 	 1 
8983 	 8983 	 8984 	 1 
8984 	 8984 	 8985 	 1 
8985 	 8985 	 8986 	 1 
8986 	 8986 	 8987 	 1 
8987 	 8987 	 8988 	 1 
8988 	 8988 	 8989 	 1 
8989 	 8989 	 8990 	 1 
8990 	 8990 	 8991 	 1 
8991 	 8991 	 8992 	 1 
8992 	 8992 	 8993 	 1 
8993 	 8993 	 8994 	 1 
8994 	 8994 	 8995 	 1 
8995 	 8995 	 8996 	 1 
8996 	 8996 	 8997 	 1 
8997 	 8997 	 8998 	 1 
8998 	 8998 	 8999 	 1 
8999 	 8999 	 9000 	 1 
9000 	 9000 	 9001 	 1 
9001 	 9001 	 9002 	 1 
9002 	 9002 	 9003 	 1 
9003 	 9003 	 9004 	 1 
9004 	 9004 	 9005 	 1 
9005 	 9005 	 9006 	 1 
9006 	 9006 	 9007 	 1 
9007 	 9007 	 9008 	 1 
9008 	 9008 	 9009 	 1 
9009 	 9009 	 9010 	 1 
9010 	 9010 	 9011 	 1 
9011 	 9011 	 9012 	 1 
9012 	 9012 	 9013 	 1 
9013 	 9013 	 9014 	 1 
9014 	 9014 	 9015 	 1 
9015 	 9015 	 9016 	 1 
9016 	 9016 	 9017 	 1 
9017 	 9017 	 9018 	 1 
9018 	 9018 	 9019 	 1 
9019 	 9019 	 9020 	 1 
9020 	 9020 	 9021 	 1 
9021 	 9021 	 9022 	 1 
9022 	 9022 	 9023 	 1 
9023 	 9023 	 9024 	 1 
9024 	 9024 	 9025 	 1 
9025 	 9025 	 9026 	 1 
9026 	 9026 	 9027 	 1 
9027 	 9027 	 9028 	 1 
9028 	 9028 	 9029 	 1 
9029 	 9029 	 9030 	 1 
9030 	 9030 	 9031 	 1 
9031 	 9031 	 9032 	 1 
9032 	 9032 	 9033 	 1 
9033 	 9033 	 9034 	 1 
9034 	 9034 	 9035 	 1 
9035 	 9035 	 9036 	 1 
9036 	 9036 	 9037 	 1 
9037 	 9037 	 9038 	 1 
9038 	 9038 	 9039 	 1 
9039 	 9039 	 9040 	 1 
9040 	 9040 	 9041 	 1 
9041 	 9041 	 9042 	 1 
9042 	 9042 	 9043 	 1 
9043 	 9043 	 9044 	 1 
9044 	 9044 	 9045 	 1 
9045 	 9045 	 9046 	 1 
9046 	 9046 	 9047 	 1 
9047 	 9047 	 9048 	 1 
9048 	 9048 	 9049 	 1 
9049 	 9049 	 9050 	 1 
9050 	 9050 	 9051 	 1 
9051 	 9051 	 9052 	 1 
9052 	 9052 	 9053 	 1 
9053 	 9053 	 9054 	 1 
9054 	 9054 	 9055 	 1 
9055 	 9055 	 9056 	 1 
9056 	 9056 	 9057 	 1 
9057 	 9057 	 9058 	 1 
9058 	 9058 	 9059 	 1 
9059 	 9059 	 9060 	 1 
9060 	 9060 	 9061 	 1 
9061 	 9061 	 9062 	 1 
9062 	 9062 	 9063 	 1 
9063 	 9063 	 9064 	 1 
9064 	 9064 	 9065 	 1 
9065 	 9065 	 9066 	 1 
9066 	 9066 	 9067 	 1 
9067 	 9067 	 9068 	 1 
9068 	 9068 	 9069 	 1 
9069 	 9069 	 9070 	 1 
9070 	 9070 	 9071 	 1 
9071 	 9071 	 9072 	 1 
9072 	 9072 	 9073 	 1 
9073 	 9073 	 9074 	 1 
9074 	 9074 	 9075 	 1 
9075 	 9075 	 9076 	 1 
9076 	 9076 	 9077 	 1 
9077 	 9077 	 9078 	 1 
9078 	 9078 	 9079 	 1 
9079 	 9079 	 9080 	 1 
9080 	 9080 	 9081 	 1 
9081 	 9081 	 9082 	 1 
9082 	 9082 	 9083 	 1 
9083 	 9083 	 9084 	 1 
9084 	 9084 	 9085 	 1 
9085 	 9085 	 9086 	 1 
9086 	 9086 	 9087 	 1 
9087 	 9087 	 9088 	 1 
9088 	 9088 	 9089 	 1 
9089 	 9089 	 9090 	 1 
9090 	 9090 	 9091 	 1 
9091 	 9091 	 9092 	 1 
9092 	 9092 	 9093 	 1 
9093 	 9093 	 9094 	 1 
9094 	 9094 	 9095 	 1 
9095 	 9095 	 9096 	 1 
9096 	 9096 	 9097 	 1 
9097 	 9097 	 9098 	 1 
9098 	 9098 	 9099 	 1 
9099 	 9099 	 9100 	 1 
9100 	 9100 	 9101 	 1 
9101 	 9101 	 9102 	 1 
9102 	 9102 	 9103 	 1 
9103 	 9103 	 9104 	 1 
9104 	 9104 	 9105 	 1 
9105 	 9105 	 9106 	 1 
9106 	 9106 	 9107 	 1 
9107 	 9107 	 9108 	 1 
9108 	 9108 	 9109 	 1 
9109 	 9109 	 9110 	 1 
9110 	 9110 	 9111 	 1 
9111 	 9111 	 9112 	 1 
9112 	 9112 	 9113 	 1 
9113 	 9113 	 9114 	 1 
9114 	 9114 	 9115 	 1 
9115 	 9115 	 9116 	 1 
9116 	 9116 	 9117 	 1 
9117 	 9117 	 9118 	 1 
9118 	 9118 	 9119 	 1 
9119 	 9119 	 9120 	 1 
9120 	 9120 	 9121 	 1 
9121 	 9121 	 9122 	 1 
9122 	 9122 	 9123 	 1 
9123 	 9123 	 9124 	 1 
9124 	 9124 	 9125 	 1 
9125 	 9125 	 9126 	 1 
9126 	 9126 	 9127 	 1 
9127 	 9127 	 9128 	 1 
9128 	 9128 	 9129 	 1 
9129 	 9129 	 9130 	 1 
9130 	 9130 	 9131 	 1 
9131 	 9131 	 9132 	 1 
9132 	 9132 	 9133 	 1 
9133 	 9133 	 9134 	 1 
9134 	 9134 	 9135 	 1 
9135 	 9135 	 9136 	 1 
9136 	 9136 	 9137 	 1 
9137 	 9137 	 9138 	 1 
9138 	 9138 	 9139 	 1 
9139 	 9139 	 9140 	 1 
9140 	 9140 	 9141 	 1 
9141 	 9141 	 9142 	 1 
9142 	 9142 	 9143 	 1 
9143 	 9143 	 9144 	 1 
9144 	 9144 	 9145 	 1 
9145 	 9145 	 9146 	 1 
9146 	 9146 	 9147 	 1 
9147 	 9147 	 9148 	 1 
9148 	 9148 	 9149 	 1 
9149 	 9149 	 9150 	 1 
9150 	 9150 	 9151 	 1 
9151 	 9151 	 9152 	 1 
9152 	 9152 	 9153 	 1 
9153 	 9153 	 9154 	 1 
9154 	 9154 	 9155 	 1 
9155 	 9155 	 9156 	 1 
9156 	 9156 	 9157 	 1 
9157 	 9157 	 9158 	 1 
9158 	 9158 	 9159 	 1 
9159 	 9159 	 9160 	 1 
9160 	 9160 	 9161 	 1 
9161 	 9161 	 9162 	 1 
9162 	 9162 	 9163 	 1 
9163 	 9163 	 9164 	 1 
9164 	 9164 	 9165 	 1 
9165 	 9165 	 9166 	 1 
9166 	 9166 	 9167 	 1 
9167 	 9167 	 9168 	 1 
9168 	 9168 	 9169 	 1 
9169 	 9169 	 9170 	 1 
9170 	 9170 	 9171 	 1 
9171 	 9171 	 9172 	 1 
9172 	 9172 	 9173 	 1 
9173 	 9173 	 9174 	 1 
9174 	 9174 	 9175 	 1 
9175 	 9175 	 9176 	 1 
9176 	 9176 	 9177 	 1 
9177 	 9177 	 9178 	 1 
9178 	 9178 	 9179 	 1 
9179 	 9179 	 9180 	 1 
9180 	 9180 	 9181 	 1 
9181 	 9181 	 9182 	 1 
9182 	 9182 	 9183 	 1 
9183 	 9183 	 9184 	 1 
9184 	 9184 	 9185 	 1 
9185 	 9185 	 9186 	 1 
9186 	 9186 	 9187 	 1 
9187 	 9187 	 9188 	 1 
9188 	 9188 	 9189 	 1 
9189 	 9189 	 9190 	 1 
9190 	 9190 	 9191 	 1 
9191 	 9191 	 9192 	 1 
9192 	 9192 	 9193 	 1 
9193 	 9193 	 9194 	 1 
9194 	 9194 	 9195 	 1 
9195 	 9195 	 9196 	 1 
9196 	 9196 	 9197 	 1 
9197 	 9197 	 9198 	 1 
9198 	 9198 	 9199 	 1 
9199 	 9199 	 9200 	 1 
9200 	 9200 	 9201 	 1 
9201 	 9201 	 9202 	 1 
9202 	 9202 	 9203 	 1 
9203 	 9203 	 9204 	 1 
9204 	 9204 	 9205 	 1 
9205 	 9205 	 9206 	 1 
9206 	 9206 	 9207 	 1 
9207 	 9207 	 9208 	 1 
9208 	 9208 	 9209 	 1 
9209 	 9209 	 9210 	 1 
9210 	 9210 	 9211 	 1 
9211 	 9211 	 9212 	 1 
9212 	 9212 	 9213 	 1 
9213 	 9213 	 9214 	 1 
9214 	 9214 	 9215 	 1 
9215 	 9215 	 9216 	 1 
9216 	 9216 	 9217 	 1 
9217 	 9217 	 9218 	 1 
9218 	 9218 	 9219 	 1 
9219 	 9219 	 9220 	 1 
9220 	 9220 	 9221 	 1 
9221 	 9221 	 9222 	 1 
9222 	 9222 	 9223 	 1 
9223 	 9223 	 9224 	 1 
9224 	 9224 	 9225 	 1 
9225 	 9225 	 9226 	 1 
9226 	 9226 	 9227 	 1 
9227 	 9227 	 9228 	 1 
9228 	 9228 	 9229 	 1 
9229 	 9229 	 9230 	 1 
9230 	 9230 	 9231 	 1 
9231 	 9231 	 9232 	 1 
9232 	 9232 	 9233 	 1 
9233 	 9233 	 9234 	 1 
9234 	 9234 	 9235 	 1 
9235 	 9235 	 9236 	 1 
9236 	 9236 	 9237 	 1 
9237 	 9237 	 9238 	 1 
9238 	 9238 	 9239 	 1 
9239 	 9239 	 9240 	 1 
9240 	 9240 	 9241 	 1 
9241 	 9241 	 9242 	 1 
9242 	 9242 	 9243 	 1 
9243 	 9243 	 9244 	 1 
9244 	 9244 	 9245 	 1 
9245 	 9245 	 9246 	 1 
9246 	 9246 	 9247 	 1 
9247 	 9247 	 9248 	 1 
9248 	 9248 	 9249 	 1 
9249 	 9249 	 9250 	 1 
9250 	 9250 	 9251 	 1 
9251 	 9251 	 9252 	 1 
9252 	 9252 	 9253 	 1 
9253 	 9253 	 9254 	 1 
9254 	 9254 	 9255 	 1 
9255 	 9255 	 9256 	 1 
9256 	 9256 	 9257 	 1 
9257 	 9257 	 9258 	 1 
9258 	 9258 	 9259 	 1 
9259 	 9259 	 9260 	 1 
9260 	 9260 	 9261 	 1 
9261 	 9261 	 9262 	 1 
9262 	 9262 	 9263 	 1 
9263 	 9263 	 9264 	 1 
9264 	 9264 	 9265 	 1 
9265 	 9265 	 9266 	 1 
9266 	 9266 	 9267 	 1 
9267 	 9267 	 9268 	 1 
9268 	 9268 	 9269 	 1 
9269 	 9269 	 9270 	 1 
9270 	 9270 	 9271 	 1 
9271 	 9271 	 9272 	 1 
9272 	 9272 	 9273 	 1 
9273 	 9273 	 9274 	 1 
9274 	 9274 	 9275 	 1 
9275 	 9275 	 9276 	 1 
9276 	 9276 	 9277 	 1 
9277 	 9277 	 9278 	 1 
9278 	 9278 	 9279 	 1 
9279 	 9279 	 9280 	 1 
9280 	 9280 	 9281 	 1 
9281 	 9281 	 9282 	 1 
9282 	 9282 	 9283 	 1 
9283 	 9283 	 9284 	 1 
9284 	 9284 	 9285 	 1 
9285 	 9285 	 9286 	 1 
9286 	 9286 	 9287 	 1 
9287 	 9287 	 9288 	 1 
9288 	 9288 	 9289 	 1 
9289 	 9289 	 9290 	 1 
9290 	 9290 	 9291 	 1 
9291 	 9291 	 9292 	 1 
9292 	 9292 	 9293 	 1 
9293 	 9293 	 9294 	 1 
9294 	 9294 	 9295 	 1 
9295 	 9295 	 9296 	 1 
9296 	 9296 	 9297 	 1 
9297 	 9297 	 9298 	 1 
9298 	 9298 	 9299 	 1 
9299 	 9299 	 9300 	 1 
9300 	 9300 	 9301 	 1 
9301 	 9301 	 9302 	 1 
9302 	 9302 	 9303 	 1 
9303 	 9303 	 9304 	 1 
9304 	 9304 	 9305 	 1 
9305 	 9305 	 9306 	 1 
9306 	 9306 	 9307 	 1 
9307 	 9307 	 9308 	 1 
9308 	 9308 	 9309 	 1 
9309 	 9309 	 9310 	 1 
9310 	 9310 	 9311 	 1 
9311 	 9311 	 9312 	 1 
9312 	 9312 	 9313 	 1 
9313 	 9313 	 9314 	 1 
9314 	 9314 	 9315 	 1 
9315 	 9315 	 9316 	 1 
9316 	 9316 	 9317 	 1 
9317 	 9317 	 9318 	 1 
9318 	 9318 	 9319 	 1 
9319 	 9319 	 9320 	 1 
9320 	 9320 	 9321 	 1 
9321 	 9321 	 9322 	 1 
9322 	 9322 	 9323 	 1 
9323 	 9323 	 9324 	 1 
9324 	 9324 	 9325 	 1 
9325 	 9325 	 9326 	 1 
9326 	 9326 	 9327 	 1 
9327 	 9327 	 9328 	 1 
9328 	 9328 	 9329 	 1 
9329 	 9329 	 9330 	 1 
9330 	 9330 	 9331 	 1 
9331 	 9331 	 9332 	 1 
9332 	 9332 	 9333 	 1 
9333 	 9333 	 9334 	 1 
9334 	 9334 	 9335 	 1 
9335 	 9335 	 9336 	 1 
9336 	 9336 	 9337 	 1 
9337 	 9337 	 9338 	 1 
9338 	 9338 	 9339 	 1 
9339 	 9339 	 9340 	 1 
9340 	 9340 	 9341 	 1 
9341 	 9341 	 9342 	 1 
9342 	 9342 	 9343 	 1 
9343 	 9343 	 9344 	 1 
9344 	 9344 	 9345 	 1 
9345 	 9345 	 9346 	 1 
9346 	 9346 	 9347 	 1 
9347 	 9347 	 9348 	 1 
9348 	 9348 	 9349 	 1 
9349 	 9349 	 9350 	 1 
9350 	 9350 	 9351 	 1 
9351 	 9351 	 9352 	 1 
9352 	 9352 	 9353 	 1 
9353 	 9353 	 9354 	 1 
9354 	 9354 	 9355 	 1 
9355 	 9355 	 9356 	 1 
9356 	 9356 	 9357 	 1 
9357 	 9357 	 9358 	 1 
9358 	 9358 	 9359 	 1 
9359 	 9359 	 9360 	 1 
9360 	 9360 	 9361 	 1 
9361 	 9361 	 9362 	 1 
9362 	 9362 	 9363 	 1 
9363 	 9363 	 9364 	 1 
9364 	 9364 	 9365 	 1 
9365 	 9365 	 9366 	 1 
9366 	 9366 	 9367 	 1 
9367 	 9367 	 9368 	 1 
9368 	 9368 	 9369 	 1 
9369 	 9369 	 9370 	 1 
9370 	 9370 	 9371 	 1 
9371 	 9371 	 9372 	 1 
9372 	 9372 	 9373 	 1 
9373 	 9373 	 9374 	 1 
9374 	 9374 	 9375 	 1 
9375 	 9375 	 9376 	 1 
9376 	 9376 	 9377 	 1 
9377 	 9377 	 9378 	 1 
9378 	 9378 	 9379 	 1 
9379 	 9379 	 9380 	 1 
9380 	 9380 	 9381 	 1 
9381 	 9381 	 9382 	 1 
9382 	 9382 	 9383 	 1 
9383 	 9383 	 9384 	 1 
9384 	 9384 	 9385 	 1 
9385 	 9385 	 9386 	 1 
9386 	 9386 	 9387 	 1 
9387 	 9387 	 9388 	 1 
9388 	 9388 	 9389 	 1 
9389 	 9389 	 9390 	 1 
9390 	 9390 	 9391 	 1 
9391 	 9391 	 9392 	 1 
9392 	 9392 	 9393 	 1 
9393 	 9393 	 9394 	 1 
9394 	 9394 	 9395 	 1 
9395 	 9395 	 9396 	 1 
9396 	 9396 	 9397 	 1 
9397 	 9397 	 9398 	 1 
9398 	 9398 	 9399 	 1 
9399 	 9399 	 9400 	 1 
9400 	 9400 	 9401 	 1 
9401 	 9401 	 9402 	 1 
9402 	 9402 	 9403 	 1 
9403 	 9403 	 9404 	 1 
9404 	 9404 	 9405 	 1 
9405 	 9405 	 9406 	 1 
9406 	 9406 	 9407 	 1 
9407 	 9407 	 9408 	 1 
9408 	 9408 	 9409 	 1 
9409 	 9409 	 9410 	 1 
9410 	 9410 	 9411 	 1 
9411 	 9411 	 9412 	 1 
9412 	 9412 	 9413 	 1 
9413 	 9413 	 9414 	 1 
9414 	 9414 	 9415 	 1 
9415 	 9415 	 9416 	 1 
9416 	 9416 	 9417 	 1 
9417 	 9417 	 9418 	 1 
9418 	 9418 	 9419 	 1 
9419 	 9419 	 9420 	 1 
9420 	 9420 	 9421 	 1 
9421 	 9421 	 9422 	 1 
9422 	 9422 	 9423 	 1 
9423 	 9423 	 9424 	 1 
9424 	 9424 	 9425 	 1 
9425 	 9425 	 9426 	 1 
9426 	 9426 	 9427 	 1 
9427 	 9427 	 9428 	 1 
9428 	 9428 	 9429 	 1 
9429 	 9429 	 9430 	 1 
9430 	 9430 	 9431 	 1 
9431 	 9431 	 9432 	 1 
9432 	 9432 	 9433 	 1 
9433 	 9433 	 9434 	 1 
9434 	 9434 	 9435 	 1 
9435 	 9435 	 9436 	 1 
9436 	 9436 	 9437 	 1 
9437 	 9437 	 9438 	 1 
9438 	 9438 	 9439 	 1 
9439 	 9439 	 9440 	 1 
9440 	 9440 	 9441 	 1 
9441 	 9441 	 9442 	 1 
9442 	 9442 	 9443 	 1 
9443 	 9443 	 9444 	 1 
9444 	 9444 	 9445 	 1 
9445 	 9445 	 9446 	 1 
9446 	 9446 	 9447 	 1 
9447 	 9447 	 9448 	 1 
9448 	 9448 	 9449 	 1 
9449 	 9449 	 9450 	 1 
9450 	 9450 	 9451 	 1 
9451 	 9451 	 9452 	 1 
9452 	 9452 	 9453 	 1 
9453 	 9453 	 9454 	 1 
9454 	 9454 	 9455 	 1 
9455 	 9455 	 9456 	 1 
9456 	 9456 	 9457 	 1 
9457 	 9457 	 9458 	 1 
9458 	 9458 	 9459 	 1 
9459 	 9459 	 9460 	 1 
9460 	 9460 	 9461 	 1 
9461 	 9461 	 9462 	 1 
9462 	 9462 	 9463 	 1 
9463 	 9463 	 9464 	 1 
9464 	 9464 	 9465 	 1 
9465 	 9465 	 9466 	 1 
9466 	 9466 	 9467 	 1 
9467 	 9467 	 9468 	 1 
9468 	 9468 	 9469 	 1 
9469 	 9469 	 9470 	 1 
9470 	 9470 	 9471 	 1 
9471 	 9471 	 9472 	 1 
9472 	 9472 	 9473 	 1 
9473 	 9473 	 9474 	 1 
9474 	 9474 	 9475 	 1 
9475 	 9475 	 9476 	 1 
9476 	 9476 	 9477 	 1 
9477 	 9477 	 9478 	 1 
9478 	 9478 	 9479 	 1 
9479 	 9479 	 9480 	 1 
9480 	 9480 	 9481 	 1 
9481 	 9481 	 9482 	 1 
9482 	 9482 	 9483 	 1 
9483 	 9483 	 9484 	 1 
9484 	 9484 	 9485 	 1 
9485 	 9485 	 9486 	 1 
9486 	 9486 	 9487 	 1 
9487 	 9487 	 9488 	 1 
9488 	 9488 	 9489 	 1 
9489 	 9489 	 9490 	 1 
9490 	 9490 	 9491 	 1 
9491 	 9491 	 9492 	 1 
9492 	 9492 	 9493 	 1 
9493 	 9493 	 9494 	 1 
9494 	 9494 	 9495 	 1 
9495 	 9495 	 9496 	 1 
9496 	 9496 	 9497 	 1 
9497 	 9497 	 9498 	 1 
9498 	 9498 	 9499 	 1 
9499 	 9499 	 9500 	 1 
9500 	 9500 	 9501 	 1 
9501 	 9501 	 9502 	 1 
9502 	 9502 	 9503 	 1 
9503 	 9503 	 9504 	 1 
9504 	 9504 	 9505 	 1 
9505 	 9505 	 9506 	 1 
9506 	 9506 	 9507 	 1 
9507 	 9507 	 9508 	 1 
9508 	 9508 	 9509 	 1 
9509 	 9509 	 9510 	 1 
9510 	 9510 	 9511 	 1 
9511 	 9511 	 9512 	 1 
9512 	 9512 	 9513 	 1 
9513 	 9513 	 9514 	 1 
9514 	 9514 	 9515 	 1 
9515 	 9515 	 9516 	 1 
9516 	 9516 	 9517 	 1 
9517 	 9517 	 9518 	 1 
9518 	 9518 	 9519 	 1 
9519 	 9519 	 9520 	 1 
9520 	 9520 	 9521 	 1 
9521 	 9521 	 9522 	 1 
9522 	 9522 	 9523 	 1 
9523 	 9523 	 9524 	 1 
9524 	 9524 	 9525 	 1 
9525 	 9525 	 9526 	 1 
9526 	 9526 	 9527 	 1 
9527 	 9527 	 9528 	 1 
9528 	 9528 	 9529 	 1 
9529 	 9529 	 9530 	 1 
9530 	 9530 	 9531 	 1 
9531 	 9531 	 9532 	 1 
9532 	 9532 	 9533 	 1 
9533 	 9533 	 9534 	 1 
9534 	 9534 	 9535 	 1 
9535 	 9535 	 9536 	 1 
9536 	 9536 	 9537 	 1 
9537 	 9537 	 9538 	 1 
9538 	 9538 	 9539 	 1 
9539 	 9539 	 9540 	 1 
9540 	 9540 	 9541 	 1 
9541 	 9541 	 9542 	 1 
9542 	 9542 	 9543 	 1 
9543 	 9543 	 9544 	 1 
9544 	 9544 	 9545 	 1 
9545 	 9545 	 9546 	 1 
9546 	 9546 	 9547 	 1 
9547 	 9547 	 9548 	 1 
9548 	 9548 	 9549 	 1 
9549 	 9549 	 9550 	 1 
9550 	 9550 	 9551 	 1 
9551 	 9551 	 9552 	 1 
9552 	 9552 	 9553 	 1 
9553 	 9553 	 9554 	 1 
9554 	 9554 	 9555 	 1 
9555 	 9555 	 9556 	 1 
9556 	 9556 	 9557 	 1 
9557 	 9557 	 9558 	 1 
9558 	 9558 	 9559 	 1 
9559 	 9559 	 9560 	 1 
9560 	 9560 	 9561 	 1 
9561 	 9561 	 9562 	 1 
9562 	 9562 	 9563 	 1 
9563 	 9563 	 9564 	 1 
9564 	 9564 	 9565 	 1 
9565 	 9565 	 9566 	 1 
9566 	 9566 	 9567 	 1 
9567 	 9567 	 9568 	 1 
9568 	 9568 	 9569 	 1 
9569 	 9569 	 9570 	 1 
9570 	 9570 	 9571 	 1 
9571 	 9571 	 9572 	 1 
9572 	 9572 	 9573 	 1 
9573 	 9573 	 9574 	 1 
9574 	 9574 	 9575 	 1 
9575 	 9575 	 9576 	 1 
9576 	 9576 	 9577 	 1 
9577 	 9577 	 9578 	 1 
9578 	 9578 	 9579 	 1 
9579 	 9579 	 9580 	 1 
9580 	 9580 	 9581 	 1 
9581 	 9581 	 9582 	 1 
9582 	 9582 	 9583 	 1 
9583 	 9583 	 9584 	 1 
9584 	 9584 	 9585 	 1 
9585 	 9585 	 9586 	 1 
9586 	 9586 	 9587 	 1 
9587 	 9587 	 9588 	 1 
9588 	 9588 	 9589 	 1 
9589 	 9589 	 9590 	 1 
9590 	 9590 	 9591 	 1 
9591 	 9591 	 9592 	 1 
9592 	 9592 	 9593 	 1 
9593 	 9593 	 9594 	 1 
9594 	 9594 	 9595 	 1 
9595 	 9595 	 9596 	 1 
9596 	 9596 	 9597 	 1 
9597 	 9597 	 9598 	 1 
9598 	 9598 	 9599 	 1 
9599 	 9599 	 9600 	 1 
9600 	 9600 	 9601 	 1 
9601 	 9601 	 9602 	 1 
9602 	 9602 	 9603 	 1 
9603 	 9603 	 9604 	 1 
9604 	 9604 	 9605 	 1 
9605 	 9605 	 9606 	 1 
9606 	 9606 	 9607 	 1 
9607 	 9607 	 9608 	 1 
9608 	 9608 	 9609 	 1 
9609 	 9609 	 9610 	 1 
9610 	 9610 	 9611 	 1 
9611 	 9611 	 9612 	 1 
9612 	 9612 	 9613 	 1 
9613 	 9613 	 9614 	 1 
9614 	 9614 	 9615 	 1 
9615 	 9615 	 9616 	 1 
9616 	 9616 	 9617 	 1 
9617 	 9617 	 9618 	 1 
9618 	 9618 	 9619 	 1 
9619 	 9619 	 9620 	 1 
9620 	 9620 	 9621 	 1 
9621 	 9621 	 9622 	 1 
9622 	 9622 	 9623 	 1 
9623 	 9623 	 9624 	 1 
9624 	 9624 	 9625 	 1 
9625 	 9625 	 9626 	 1 
9626 	 9626 	 9627 	 1 
9627 	 9627 	 9628 	 1 
9628 	 9628 	 9629 	 1 
9629 	 9629 	 9630 	 1 
9630 	 9630 	 9631 	 1 
9631 	 9631 	 9632 	 1 
9632 	 9632 	 9633 	 1 
9633 	 9633 	 9634 	 1 
9634 	 9634 	 9635 	 1 
9635 	 9635 	 9636 	 1 
9636 	 9636 	 9637 	 1 
9637 	 9637 	 9638 	 1 
9638 	 9638 	 9639 	 1 
9639 	 9639 	 9640 	 1 
9640 	 9640 	 9641 	 1 
9641 	 9641 	 9642 	 1 
9642 	 9642 	 9643 	 1 
9643 	 9643 	 9644 	 1 
9644 	 9644 	 9645 	 1 
9645 	 9645 	 9646 	 1 
9646 	 9646 	 9647 	 1 
9647 	 9647 	 9648 	 1 
9648 	 9648 	 9649 	 1 
9649 	 9649 	 9650 	 1 
9650 	 9650 	 9651 	 1 
9651 	 9651 	 9652 	 1 
9652 	 9652 	 9653 	 1 
9653 	 9653 	 9654 	 1 
9654 	 9654 	 9655 	 1 
9655 	 9655 	 9656 	 1 
9656 	 9656 	 9657 	 1 
9657 	 9657 	 9658 	 1 
9658 	 9658 	 9659 	 1 
9659 	 9659 	 9660 	 1 
9660 	 9660 	 9661 	 1 
9661 	 9661 	 9662 	 1 
9662 	 9662 	 9663 	 1 
9663 	 9663 	 9664 	 1 
9664 	 9664 	 9665 	 1 
9665 	 9665 	 9666 	 1 
9666 	 9666 	 9667 	 1 
9667 	 9667 	 9668 	 1 
9668 	 9668 	 9669 	 1 
9669 	 9669 	 9670 	 1 
9670 	 9670 	 9671 	 1 
9671 	 9671 	 9672 	 1 
9672 	 9672 	 9673 	 1 
9673 	 9673 	 9674 	 1 
9674 	 9674 	 9675 	 1 
9675 	 9675 	 9676 	 1 
9676 	 9676 	 9677 	 1 
9677 	 9677 	 9678 	 1 
9678 	 9678 	 9679 	 1 
9679 	 9679 	 9680 	 1 
9680 	 9680 	 9681 	 1 
9681 	 9681 	 9682 	 1 
9682 	 9682 	 9683 	 1 
9683 	 9683 	 9684 	 1 
9684 	 9684 	 9685 	 1 
9685 	 9685 	 9686 	 1 
9686 	 9686 	 9687 	 1 
9687 	 9687 	 9688 	 1 
9688 	 9688 	 9689 	 1 
9689 	 9689 	 9690 	 1 
9690 	 9690 	 9691 	 1 
9691 	 9691 	 9692 	 1 
9692 	 9692 	 9693 	 1 
9693 	 9693 	 9694 	 1 
9694 	 9694 	 9695 	 1 
9695 	 9695 	 9696 	 1 
9696 	 9696 	 9697 	 1 
9697 	 9697 	 9698 	 1 
9698 	 9698 	 9699 	 1 
9699 	 9699 	 9700 	 1 
9700 	 9700 	 9701 	 1 
9701 	 9701 	 9702 	 1 
9702 	 9702 	 9703 	 1 
9703 	 9703 	 9704 	 1 
9704 	 9704 	 9705 	 1 
9705 	 9705 	 9706 	 1 
9706 	 9706 	 9707 	 1 
9707 	 9707 	 9708 	 1 
9708 	 9708 	 9709 	 1 
9709 	 9709 	 9710 	 1 
9710 	 9710 	 9711 	 1 
9711 	 9711 	 9712 	 1 
9712 	 9712 	 9713 	 1 
9713 	 9713 	 9714 	 1 
9714 	 9714 	 9715 	 1 
9715 	 9715 	 9716 	 1 
9716 	 9716 	 9717 	 1 
9717 	 9717 	 9718 	 1 
9718 	 9718 	 9719 	 1 
9719 	 9719 	 9720 	 1 
9720 	 9720 	 9721 	 1 
9721 	 9721 	 9722 	 1 
9722 	 9722 	 9723 	 1 
9723 	 9723 	 9724 	 1 
9724 	 9724 	 9725 	 1 
9725 	 9725 	 9726 	 1 
9726 	 9726 	 9727 	 1 
9727 	 9727 	 9728 	 1 
9728 	 9728 	 9729 	 1 
9729 	 9729 	 9730 	 1 
9730 	 9730 	 9731 	 1 
9731 	 9731 	 9732 	 1 
9732 	 9732 	 9733 	 1 
9733 	 9733 	 9734 	 1 
9734 	 9734 	 9735 	 1 
9735 	 9735 	 9736 	 1 
9736 	 9736 	 9737 	 1 
9737 	 9737 	 9738 	 1 
9738 	 9738 	 9739 	 1 
9739 	 9739 	 9740 	 1 
9740 	 9740 	 9741 	 1 
9741 	 9741 	 9742 	 1 
9742 	 9742 	 9743 	 1 
9743 	 9743 	 9744 	 1 
9744 	 9744 	 9745 	 1 
9745 	 9745 	 9746 	 1 
9746 	 9746 	 9747 	 1 
9747 	 9747 	 9748 	 1 
9748 	 9748 	 9749 	 1 
9749 	 9749 	 9750 	 1 
9750 	 9750 	 9751 	 1 
9751 	 9751 	 9752 	 1 
9752 	 9752 	 9753 	 1 
9753 	 9753 	 9754 	 1 
9754 	 9754 	 9755 	 1 
9755 	 9755 	 9756 	 1 
9756 	 9756 	 9757 	 1 
9757 	 9757 	 9758 	 1 
9758 	 9758 	 9759 	 1 
9759 	 9759 	 9760 	 1 
9760 	 9760 	 9761 	 1 
9761 	 9761 	 9762 	 1 
9762 	 9762 	 9763 	 1 
9763 	 9763 	 9764 	 1 
9764 	 9764 	 9765 	 1 
9765 	 9765 	 9766 	 1 
9766 	 9766 	 9767 	 1 
9767 	 9767 	 9768 	 1 
9768 	 9768 	 9769 	 1 
9769 	 9769 	 9770 	 1 
9770 	 9770 	 9771 	 1 
9771 	 9771 	 9772 	 1 
9772 	 9772 	 9773 	 1 
9773 	 9773 	 9774 	 1 
9774 	 9774 	 9775 	 1 
9775 	 9775 	 9776 	 1 
9776 	 9776 	 9777 	 1 
9777 	 9777 	 9778 	 1 
9778 	 9778 	 9779 	 1 
9779 	 9779 	 9780 	 1 
9780 	 9780 	 9781 	 1 
9781 	 9781 	 9782 	 1 
9782 	 9782 	 9783 	 1 
9783 	 9783 	 9784 	 1 
9784 	 9784 	 9785 	 1 
9785 	 9785 	 9786 	 1 
9786 	 9786 	 9787 	 1 
9787 	 9787 	 9788 	 1 
9788 	 9788 	 9789 	 1 
9789 	 9789 	 9790 	 1 
9790 	 9790 	 9791 	 1 
9791 	 9791 	 9792 	 1 
9792 	 9792 	 9793 	 1 
9793 	 9793 	 9794 	 1 
9794 	 9794 	 9795 	 1 
9795 	 9795 	 9796 	 1 
9796 	 9796 	 9797 	 1 
9797 	 9797 	 9798 	 1 
9798 	 9798 	 9799 	 1 
9799 	 9799 	 9800 	 1 
9800 	 9800 	 9801 	 1 
9801 	 9801 	 9802 	 1 
9802 	 9802 	 9803 	 1 
9803 	 9803 	 9804 	 1 
9804 	 9804 	 9805 	 1 
9805 	 9805 	 9806 	 1 
9806 	 9806 	 9807 	 1 
9807 	 9807 	 9808 	 1 
9808 	 9808 	 9809 	 1 
9809 	 9809 	 9810 	 1 
9810 	 9810 	 9811 	 1 
9811 	 9811 	 9812 	 1 
9812 	 9812 	 9813 	 1 
9813 	 9813 	 9814 	 1 
9814 	 9814 	 9815 	 1 
9815 	 9815 	 9816 	 1 
9816 	 9816 	 9817 	 1 
9817 	 9817 	 9818 	 1 
9818 	 9818 	 9819 	 1 
9819 	 9819 	 9820 	 1 
9820 	 9820 	 9821 	 1 
9821 	 9821 	 9822 	 1 
9822 	 9822 	 9823 	 1 
9823 	 9823 	 9824 	 1 
9824 	 9824 	 9825 	 1 
9825 	 9825 	 9826 	 1 
9826 	 9826 	 9827 	 1 
9827 	 9827 	 9828 	 1 
9828 	 9828 	 9829 	 1 
9829 	 9829 	 9830 	 1 
9830 	 9830 	 9831 	 1 
9831 	 9831 	 9832 	 1 
9832 	 9832 	 9833 	 1 
9833 	 9833 	 9834 	 1 
9834 	 9834 	 9835 	 1 
9835 	 9835 	 9836 	 1 
9836 	 9836 	 9837 	 1 
9837 	 9837 	 9838 	 1 
9838 	 9838 	 9839 	 1 
9839 	 9839 	 9840 	 1 
9840 	 9840 	 9841 	 1 
9841 	 9841 	 9842 	 1 
9842 	 9842 	 9843 	 1 
9843 	 9843 	 9844 	 1 
9844 	 9844 	 9845 	 1 
9845 	 9845 	 9846 	 1 
9846 	 9846 	 9847 	 1 
9847 	 9847 	 9848 	 1 
9848 	 9848 	 9849 	 1 
9849 	 9849 	 9850 	 1 
9850 	 9850 	 9851 	 1 
9851 	 9851 	 9852 	 1 
9852 	 9852 	 9853 	 1 
9853 	 9853 	 9854 	 1 
9854 	 9854 	 9855 	 1 
9855 	 9855 	 9856 	 1 
9856 	 9856 	 9857 	 1 
9857 	 9857 	 9858 	 1 
9858 	 9858 	 9859 	 1 
9859 	 9859 	 9860 	 1 
9860 	 9860 	 9861 	 1 
9861 	 9861 	 9862 	 1 
9862 	 9862 	 9863 	 1 
9863 	 9863 	 9864 	 1 
9864 	 9864 	 9865 	 1 
9865 	 9865 	 9866 	 1 
9866 	 9866 	 9867 	 1 
9867 	 9867 	 9868 	 1 
9868 	 9868 	 9869 	 1 
9869 	 9869 	 9870 	 1 
9870 	 9870 	 9871 	 1 
9871 	 9871 	 9872 	 1 
9872 	 9872 	 9873 	 1 
9873 	 9873 	 9874 	 1 
9874 	 9874 	 9875 	 1 
9875 	 9875 	 9876 	 1 
9876 	 9876 	 9877 	 1 
9877 	 9877 	 9878 	 1 
9878 	 9878 	 9879 	 1 
9879 	 9879 	 9880 	 1 
9880 	 9880 	 9881 	 1 
9881 	 9881 	 9882 	 1 
9882 	 9882 	 9883 	 1 
9883 	 9883 	 9884 	 1 
9884 	 9884 	 9885 	 1 
9885 	 9885 	 9886 	 1 
9886 	 9886 	 9887 	 1 
9887 	 9887 	 9888 	 1 
9888 	 9888 	 9889 	 1 
9889 	 9889 	 9890 	 1 
9890 	 9890 	 9891 	 1 
9891 	 9891 	 9892 	 1 
9892 	 9892 	 9893 	 1 
9893 	 9893 	 9894 	 1 
9894 	 9894 	 9895 	 1 
9895 	 9895 	 9896 	 1 
9896 	 9896 	 9897 	 1 
9897 	 9897 	 9898 	 1 
9898 	 9898 	 9899 	 1 
9899 	 9899 	 9900 	 1 
9900 	 9900 	 9901 	 1 
9901 	 9901 	 9902 	 1 
9902 	 9902 	 9903 	 1 
9903 	 9903 	 9904 	 1 
9904 	 9904 	 9905 	 1 
9905 	 9905 	 9906 	 1 
9906 	 9906 	 9907 	 1 
9907 	 9907 	 9908 	 1 
9908 	 9908 	 9909 	 1 
9909 	 9909 	 9910 	 1 
9910 	 9910 	 9911 	 1 
9911 	 9911 	 9912 	 1 
9912 	 9912 	 9913 	 1 
9913 	 9913 	 9914 	 1 
9914 	 9914 	 9915 	 1 
9915 	 9915 	 9916 	 1 
9916 	 9916 	 9917 	 1 
9917 	 9917 	 9918 	 1 
9918 	 9918 	 9919 	 1 
9919 	 9919 	 9920 	 1 
9920 	 9920 	 9921 	 1 
9921 	 9921 	 9922 	 1 
9922 	 9922 	 9923 	 1 
9923 	 9923 	 9924 	 1 
9924 	 9924 	 9925 	 1 
9925 	 9925 	 9926 	 1 
9926 	 9926 	 9927 	 1 
9927 	 9927 	 9928 	 1 
9928 	 9928 	 9929 	 1 
9929 	 9929 	 9930 	 1 
9930 	 9930 	 9931 	 1 
9931 	 9931 	 9932 	 1 
9932 	 9932 	 9933 	 1 
9933 	 9933 	 9934 	 1 
9934 	 9934 	 9935 	 1 
9935 	 9935 	 9936 	 1 
9936 	 9936 	 9937 	 1 
9937 	 9937 	 9938 	 1 
9938 	 9938 	 9939 	 1 
9939 	 9939 	 9940 	 1 
9940 	 9940 	 9941 	 1 
9941 	 9941 	 9942 	 1 
9942 	 9942 	 9943 	 1 
9943 	 9943 	 9944 	 1 
9944 	 9944 	 9945 	 1 
9945 	 9945 	 9946 	 1 
9946 	 9946 	 9947 	 1 
9947 	 9947 	 9948 	 1 
9948 	 9948 	 9949 	 1 
9949 	 9949 	 9950 	 1 
9950 	 9950 	 9951 	 1 
9951 	 9951 	 9952 	 1 
9952 	 9952 	 9953 	 1 
9953 	 9953 	 9954 	 1 
9954 	 9954 	 9955 	 1 
9955 	 9955 	 9956 	 1 
9956 	 9956 	 9957 	 1 
9957 	 9957 	 9958 	 1 
9958 	 9958 	 9959 	 1 
9959 	 9959 	 9960 	 1 
9960 	 9960 	 9961 	 1 
9961 	 9961 	 9962 	 1 
9962 	 9962 	 9963 	 1 
9963 	 9963 	 9964 	 1 
9964 	 9964 	 9965 	 1 
9965 	 9965 	 9966 	 1 
9966 	 9966 	 9967 	 1 
9967 	 9967 	 9968 	 1 
9968 	 9968 	 9969 	 1 
9969 	 9969 	 9970 	 1 
9970 	 9970 	 9971 	 1 
9971 	 9971 	 9972 	 1 
9972 	 9972 	 9973 	 1 
9973 	 9973 	 9974 	 1 
9974 	 9974 	 9975 	 1 
9975 	 9975 	 9976 	 1 
9976 	 9976 	 9977 	 1 
9977 	 9977 	 9978 	 1 
9978 	 9978 	 9979 	 1 
9979 	 9979 	 9980 	 1 
9980 	 9980 	 9981 	 1 
9981 	 9981 	 9982 	 1 
9982 	 9982 	 9983 	 1 
9983 	 9983 	 9984 	 1 
9984 	 9984 	 9985 	 1 
9985 	 9985 	 9986 	 1 
9986 	 9986 	 9987 	 1 
9987 	 9987 	 9988 	 1 
9988 	 9988 	 9989 	 1 
9989 	 9989 	 9990 	 1 
9990 	 9990 	 9991 	 1 
9991 	 9991 	 9992 	 1 
9992 	 9992 	 9993 	 1 
9993 	 9993 	 9994 	 1 
9994 	 9994 	 9995 	 1 
9995 	 9995 	 9996 	 1 
9996 	 9996 	 9997 	 1 
9997 	 9997 	 9998 	 1 
9998 	 9998 	 9999 	 1 
9999 	 9999 	 10000 	 1 
